
     RDKit          2D

 29 32  0  0  1  0  0  0  0  0999 V2000
    2.0458   -0.6798    0.0000 C   0  0  0  0  0  0  0  0  0  0  0  0
    1.2336   -0.5346    0.0000 O   0  0  0  0  0  0  0  0  0  0  0  0
    2.3261   -1.4557    0.0000 C   0  0  0  0  0  0  0  0  0  0  0  0
    3.1382   -1.6009    0.0000 C   0  0  0  0  0  0  0  0  0  0  0  0
    3.6700   -0.9702    0.0000 C   0  0  0  0  0  0  0  0  0  0  0  0
    3.3897   -0.1943    0.0000 C   0  0  0  0  0  0  0  0  0  0  0  0
    2.5776   -0.0491    0.0000 C   0  0  0  0  0  0  0  0  0  0  0  0
    3.9215    0.4364    0.0000 C   0  0  0  0  0  0  0  0  0  0  0  0
    4.7336    0.2912    0.0000 C   0  0  0  0  0  0  0  0  0  0  0  0
    5.2655    0.9219    0.0000 O   0  0  0  0  0  0  0  0  0  0  0  0
    5.0139   -0.4847    0.0000 C   0  0  0  0  0  0  0  0  0  0  0  0
    5.8261   -0.6299    0.0000 C   0  0  0  0  0  0  0  0  0  0  0  0
    6.4774   -0.1236    0.0000 C   0  0  0  0  0  0  0  0  0  0  0  0
    7.1602   -0.5866    0.0000 C   0  0  0  0  0  0  0  0  0  0  0  0
    6.9309   -1.3791    0.0000 C   0  0  0  0  0  0  0  0  0  0  0  0
    7.4373   -2.0304    0.0000 C   0  0  0  0  0  0  0  0  0  0  0  0
    7.1264   -2.7946    0.0000 C   0  0  0  0  0  0  0  0  0  0  0  0
    7.6327   -3.4459    0.0000 C   0  0  0  0  0  0  0  0  0  0  0  0
    7.3219   -4.2101    0.0000 C   0  0  0  0  0  0  0  0  0  0  0  0
    7.8282   -4.8614    0.0000 O   0  0  0  0  0  0  0  0  0  0  0  0
    6.5046   -4.3229    0.0000 O   0  0  0  0  0  0  0  0  0  0  0  0
    8.2545   -1.9175    0.0000 C   0  0  0  0  0  0  0  0  0  0  0  0
    6.1064   -1.4059    0.0000 C   0  0  0  0  0  0  0  0  0  0  0  0
    6.4662   -2.1482    0.0000 C   0  0  0  0  0  0  0  0  0  0  0  0
    5.5745   -2.0366    0.0000 C   0  0  0  0  0  0  0  0  0  0  0  0
    5.8548   -2.8125    0.0000 O   0  0  0  0  0  0  0  0  0  0  0  0
    4.7624   -1.8914    0.0000 C   0  0  0  0  0  0  0  0  0  0  0  0
    4.4821   -1.1154    0.0000 C   0  0  0  0  0  0  0  0  0  0  0  0
    3.9503   -1.7461    0.0000 C   0  0  0  0  0  0  0  0  0  0  0  0
  1  2  2  0
  1  3  1  0
  3  4  1  0
  5  4  1  0
  5  6  1  0
  6  7  1  1
  1  7  1  0
  6  8  1  0
  8  9  1  0
  9 10  2  0
 11  9  1  1
 11 12  1  0
 12 13  1  6
 13 14  1  0
 15 14  1  6
 15 16  1  0
 16 17  1  0
 17 18  1  0
 18 19  1  0
 19 20  2  0
 19 21  1  0
 16 22  1  6
 23 15  1  0
 12 23  1  0
 23 24  1  6
 23 25  1  0
 25 26  2  0
 25 27  1  0
 28 27  1  6
  5 28  1  0
 28 11  1  0
  5 29  1  6
M  END
>  <ID>  (1) 
T0408

>  <CAS>  (1) 
81-23-2

>  <Formula>  (1) 
C24H34O5

>  <MolWt>  (1) 
402.52

>  <rank>  (1) 
1

>  <final_score>  (1) 
0.0000

>  <max_tc>  (1) 
0.3889

>  <best_match>  (1) 
Obeticholic acid (OCA)

>  <best_target>  (1) 
FXR

>  <physchem_compliance>  (1) 
0.0000

>  <toxic_score>  (1) 
0.8000

$$$$

     RDKit          2D

 29 32  0  0  1  0  0  0  0  0999 V2000
    7.7104   -2.5011    0.0000 O   0  0  0  0  0  0  0  0  0  0  0  0
    8.4249   -2.0886    0.0000 C   0  0  0  0  0  0  0  0  0  0  0  0
    8.4249   -1.2636    0.0000 O   0  0  0  0  0  0  0  0  0  0  0  0
    9.1394   -2.5011    0.0000 C   0  0  0  0  0  0  0  0  0  0  0  0
    9.8538   -2.0886    0.0000 C   0  0  0  0  0  0  0  0  0  0  0  0
   10.5683   -2.5011    0.0000 C   0  0  0  0  0  0  0  0  0  0  0  0
   10.5683   -3.3261    0.0000 C   0  0  0  0  0  0  0  0  0  0  0  0
   11.2828   -2.0886    0.0000 C   0  0  0  0  0  0  0  0  0  0  0  0
   11.3690   -1.2682    0.0000 C   0  0  0  0  0  0  0  0  0  0  0  0
   12.1760   -1.0966    0.0000 C   0  0  0  0  0  0  0  0  0  0  0  0
   12.5885   -1.8111    0.0000 C   0  0  0  0  0  0  0  0  0  0  0  0
   12.0365   -2.4242    0.0000 C   0  0  0  0  0  0  0  0  0  0  0  0
   11.4234   -2.9762    0.0000 C   0  0  0  0  0  0  0  0  0  0  0  0
   12.2914   -3.2088    0.0000 C   0  0  0  0  0  0  0  0  0  0  0  0
   11.7394   -3.8219    0.0000 O   0  0  0  0  0  0  0  0  0  0  0  0
   13.0984   -3.3803    0.0000 C   0  0  0  0  0  0  0  0  0  0  0  0
   13.6504   -2.7673    0.0000 C   0  0  0  0  0  0  0  0  0  0  0  0
   13.3955   -1.9826    0.0000 C   0  0  0  0  0  0  0  0  0  0  0  0
   13.9475   -1.3695    0.0000 C   0  0  0  0  0  0  0  0  0  0  0  0
   13.6926   -0.5849    0.0000 O   0  0  0  0  0  0  0  0  0  0  0  0
   14.7545   -1.5411    0.0000 C   0  0  0  0  0  0  0  0  0  0  0  0
   15.0094   -2.3257    0.0000 C   0  0  0  0  0  0  0  0  0  0  0  0
   15.8164   -2.4972    0.0000 C   0  0  0  0  0  0  0  0  0  0  0  0
   16.0713   -3.2818    0.0000 C   0  0  0  0  0  0  0  0  0  0  0  0
   16.8783   -3.4534    0.0000 O   0  0  0  0  0  0  0  0  0  0  0  0
   15.5193   -3.8949    0.0000 C   0  0  0  0  0  0  0  0  0  0  0  0
   14.7123   -3.7234    0.0000 C   0  0  0  0  0  0  0  0  0  0  0  0
   14.4574   -2.9388    0.0000 C   0  0  0  0  0  0  0  0  0  0  0  0
   13.9053   -3.5519    0.0000 C   0  0  0  0  0  0  0  0  0  0  0  0
  1  2  1  0
  2  3  2  0
  2  4  1  0
  4  5  1  0
  6  5  1  0
  6  7  1  6
  8  6  1  0
  8  9  1  1
  9 10  1  0
 11 10  1  1
 12 11  1  0
  8 12  1  0
 12 13  1  1
 12 14  1  0
 14 15  2  0
 14 16  1  0
 17 16  1  1
 18 17  1  0
 11 18  1  0
 18 19  1  6
 19 20  2  0
 19 21  1  0
 22 21  1  6
 22 23  1  0
 23 24  1  0
 24 25  2  0
 24 26  1  0
 26 27  1  0
 28 27  1  0
 17 28  1  0
 28 22  1  0
 28 29  1  1
M  CHG  1   1  -1
M  END
>  <ID>  (2) 
T0516

>  <CAS>  (2) 
145-41-5

>  <Formula>  (2) 
C24H33NaO5

>  <MolWt>  (2) 
424.51

>  <rank>  (2) 
2

>  <final_score>  (2) 
0.0000

>  <max_tc>  (2) 
0.3117

>  <best_match>  (2) 
Obeticholic acid (OCA)

>  <best_target>  (2) 
FXR

>  <physchem_compliance>  (2) 
0.0000

>  <toxic_score>  (2) 
0.8000

$$$$

     RDKit          2D

 28 31  0  0  1  0  0  0  0  0999 V2000
    1.2463   -2.6932    0.0000 C   0  0  0  0  0  0  0  0  0  0  0  0
    0.4342   -2.8384    0.0000 C   0  0  0  0  0  0  0  0  0  0  0  0
   -0.0976   -2.2077    0.0000 C   0  0  0  0  0  0  0  0  0  0  0  0
   -0.9098   -2.3529    0.0000 O   0  0  0  0  0  0  0  0  0  0  0  0
    0.1827   -1.4318    0.0000 C   0  0  0  0  0  0  0  0  0  0  0  0
    0.9948   -1.2866    0.0000 C   0  0  0  0  0  0  0  0  0  0  0  0
    1.5266   -1.9173    0.0000 C   0  0  0  0  0  0  0  0  0  0  0  0
    1.8069   -1.1414    0.0000 C   0  0  0  0  0  0  0  0  0  0  0  0
    2.3387   -1.7721    0.0000 C   0  0  0  0  0  0  0  0  0  0  0  0
    2.6190   -0.9961    0.0000 C   0  0  0  0  0  0  0  0  0  0  0  0
    3.4311   -0.8509    0.0000 C   0  0  0  0  0  0  0  0  0  0  0  0
    3.9629   -1.4816    0.0000 C   0  0  0  0  0  0  0  0  0  0  0  0
    4.3228   -0.7393    0.0000 C   0  0  0  0  0  0  0  0  0  0  0  0
    4.7875   -1.5084    0.0000 C   0  0  0  0  0  0  0  0  0  0  0  0
    5.0168   -2.3009    0.0000 C   0  0  0  0  0  0  0  0  0  0  0  0
    4.3340   -2.7639    0.0000 C   0  0  0  0  0  0  0  0  0  0  0  0
    3.6826   -2.2576    0.0000 C   0  0  0  0  0  0  0  0  0  0  0  0
    2.8705   -2.4028    0.0000 C   0  0  0  0  0  0  0  0  0  0  0  0
    2.5902   -3.1787    0.0000 C   0  0  0  0  0  0  0  0  0  0  0  0
    3.1220   -3.8094    0.0000 O   0  0  0  0  0  0  0  0  0  0  0  0
    1.7781   -3.3239    0.0000 C   0  0  0  0  0  0  0  0  0  0  0  0
    5.2939   -0.8571    0.0000 C   0  0  0  0  0  0  0  0  0  0  0  0
    4.9830   -0.0929    0.0000 C   0  0  0  0  0  0  0  0  0  0  0  0
    6.1111   -0.9700    0.0000 C   0  0  0  0  0  0  0  0  0  0  0  0
    6.6175   -0.3186    0.0000 C   0  0  0  0  0  0  0  0  0  0  0  0
    7.4347   -0.4315    0.0000 C   0  0  0  0  0  0  0  0  0  0  0  0
    7.9411    0.2198    0.0000 O   0  0  0  0  0  0  0  0  0  0  0  0
    7.7456   -1.1957    0.0000 O   0  0  0  0  0  0  0  0  0  0  0  0
  1  2  1  6
  3  2  1  0
  3  4  1  6
  3  5  1  0
  5  6  1  0
  7  6  1  0
  7  1  1  0
  7  8  1  1
  9  7  1  0
  9 10  1  1
 10 11  1  0
 12 11  1  0
 12 13  1  1
 12 14  1  0
 14 15  1  1
 15 16  1  0
 17 16  1  1
 17 12  1  0
 18 17  1  0
 18  9  1  0
 18 19  1  6
 19 20  1  1
 19 21  1  0
  1 21  1  0
 14 22  1  0
 22 23  1  6
 22 24  1  0
 24 25  1  0
 25 26  1  0
 26 27  2  0
 26 28  1  0
M  END
>  <ID>  (3) 
T0700

>  <CAS>  (3) 
128-13-2

>  <Formula>  (3) 
C24H40O4

>  <MolWt>  (3) 
392.57

>  <rank>  (3) 
3

>  <final_score>  (3) 
0.0000

>  <max_tc>  (3) 
0.6667

>  <best_match>  (3) 
Obeticholic acid (OCA)

>  <best_target>  (3) 
FXR

>  <physchem_compliance>  (3) 
0.0000

>  <toxic_score>  (3) 
0.8000

$$$$

     RDKit          2D

 28 31  0  0  1  0  0  0  0  0999 V2000
    2.8728   -3.9050    0.0000 C   0  0  0  0  0  0  0  0  0  0  0  0
    2.5619   -3.1408    0.0000 C   0  0  0  0  0  0  0  0  0  0  0  0
    1.7447   -3.0280    0.0000 C   0  0  0  0  0  0  0  0  0  0  0  0
    1.2383   -3.6793    0.0000 C   0  0  0  0  0  0  0  0  0  0  0  0
    0.4211   -3.5665    0.0000 C   0  0  0  0  0  0  0  0  0  0  0  0
   -0.0853   -4.2178    0.0000 O   0  0  0  0  0  0  0  0  0  0  0  0
    0.1102   -2.8023    0.0000 O   0  0  0  0  0  0  0  0  0  0  0  0
    3.0683   -2.4895    0.0000 C   0  0  0  0  0  0  0  0  0  0  0  0
    2.8390   -1.6970    0.0000 C   0  0  0  0  0  0  0  0  0  0  0  0
    3.5218   -1.2340    0.0000 C   0  0  0  0  0  0  0  0  0  0  0  0
    4.1731   -1.7404    0.0000 C   0  0  0  0  0  0  0  0  0  0  0  0
    4.9853   -1.5952    0.0000 C   0  0  0  0  0  0  0  0  0  0  0  0
    5.2655   -0.8192    0.0000 C   0  0  0  0  0  0  0  0  0  0  0  0
    4.7337   -0.1885    0.0000 O   0  0  0  0  0  0  0  0  0  0  0  0
    6.0777   -0.6740    0.0000 C   0  0  0  0  0  0  0  0  0  0  0  0
    6.6095   -1.3047    0.0000 C   0  0  0  0  0  0  0  0  0  0  0  0
    7.4216   -1.1595    0.0000 C   0  0  0  0  0  0  0  0  0  0  0  0
    7.9534   -1.7902    0.0000 C   0  0  0  0  0  0  0  0  0  0  0  0
    8.7655   -1.6450    0.0000 O   0  0  0  0  0  0  0  0  0  0  0  0
    7.6731   -2.5662    0.0000 C   0  0  0  0  0  0  0  0  0  0  0  0
    6.8610   -2.7114    0.0000 C   0  0  0  0  0  0  0  0  0  0  0  0
    6.3292   -2.0807    0.0000 C   0  0  0  0  0  0  0  0  0  0  0  0
    6.0489   -2.8566    0.0000 C   0  0  0  0  0  0  0  0  0  0  0  0
    5.5171   -2.2259    0.0000 C   0  0  0  0  0  0  0  0  0  0  0  0
    5.2368   -3.0018    0.0000 C   0  0  0  0  0  0  0  0  0  0  0  0
    4.4247   -3.1470    0.0000 C   0  0  0  0  0  0  0  0  0  0  0  0
    3.8928   -2.5163    0.0000 C   0  0  0  0  0  0  0  0  0  0  0  0
    3.5330   -3.2587    0.0000 C   0  0  0  0  0  0  0  0  0  0  0  0
  2  1  1  6
  2  3  1  0
  3  4  1  0
  4  5  1  0
  5  6  1  0
  5  7  2  0
  8  2  1  0
  8  9  1  1
  9 10  1  0
 11 10  1  1
 12 11  1  0
 12 13  1  6
 13 14  1  6
 13 15  1  0
 16 15  1  6
 16 17  1  0
 18 17  1  0
 18 19  1  6
 18 20  1  0
 20 21  1  0
 22 21  1  0
 22 16  1  0
 22 23  1  1
 24 22  1  0
 12 24  1  0
 24 25  1  1
 25 26  1  0
 27 26  1  0
 27  8  1  0
 11 27  1  0
 27 28  1  1
M  END
>  <ID>  (4) 
T0847

>  <CAS>  (4) 
474-25-9

>  <Formula>  (4) 
C24H40O4

>  <MolWt>  (4) 
392.57

>  <rank>  (4) 
4

>  <final_score>  (4) 
0.0000

>  <max_tc>  (4) 
0.6667

>  <best_match>  (4) 
Obeticholic acid (OCA)

>  <best_target>  (4) 
FXR

>  <physchem_compliance>  (4) 
0.0000

>  <toxic_score>  (4) 
0.8000

$$$$

     RDKit          2D

 26 28  0  0  0  0  0  0  0  0999 V2000
    2.8579   -4.9500    0.0000 C   0  0  0  0  0  0  0  0  0  0  0  0
    2.1434   -5.3625    0.0000 C   0  0  0  0  0  0  0  0  0  0  0  0
    1.4289   -4.9500    0.0000 C   0  0  0  0  0  0  0  0  0  0  0  0
    1.4289   -4.1250    0.0000 C   0  0  0  0  0  0  0  0  0  0  0  0
    2.1434   -3.7125    0.0000 C   0  0  0  0  0  0  0  0  0  0  0  0
    2.8579   -4.1250    0.0000 C   0  0  0  0  0  0  0  0  0  0  0  0
    2.1434   -2.8875    0.0000 C   0  0  0  0  0  0  0  0  0  0  0  0
    2.8579   -2.4750    0.0000 C   0  0  0  0  0  0  0  0  0  0  0  0
    2.8579   -1.6500    0.0000 C   0  0  0  0  0  0  0  0  0  0  0  0
    3.5724   -1.2375    0.0000 C   0  0  0  0  0  0  0  0  0  0  0  0
    4.2868   -1.6500    0.0000 C   0  0  0  0  0  0  0  0  0  0  0  0
    4.2868   -2.4750    0.0000 C   0  0  0  0  0  0  0  0  0  0  0  0
    3.5724   -2.8875    0.0000 C   0  0  0  0  0  0  0  0  0  0  0  0
    3.5724   -3.7125    0.0000 Cl  0  0  0  0  0  0  0  0  0  0  0  0
    5.0013   -1.2375    0.0000 N   0  0  0  0  0  0  0  0  0  0  0  0
    5.0013   -0.4125    0.0000 C   0  0  0  0  0  0  0  0  0  0  0  0
    4.2868    0.0000    0.0000 O   0  0  0  0  0  0  0  0  0  0  0  0
    5.7158    0.0000    0.0000 N   0  0  0  0  0  0  0  0  0  0  0  0
    6.4302   -0.4125    0.0000 C   0  0  0  0  0  0  0  0  0  0  0  0
    7.1447   -0.0000    0.0000 O   0  0  0  0  0  0  0  0  0  0  0  0
    6.4302   -1.2375    0.0000 C   0  0  0  0  0  0  0  0  0  0  0  0
    5.7158   -1.6500    0.0000 N   0  0  0  0  0  0  0  0  0  0  0  0
    2.1434   -1.2375    0.0000 Cl  0  0  0  0  0  0  0  0  0  0  0  0
    1.4289   -2.4750    0.0000 C   0  0  0  0  0  0  0  0  0  0  0  0
    0.7145   -2.0625    0.0000 N   0  0  0  0  0  0  0  0  0  0  0  0
    2.1434   -6.1875    0.0000 Cl  0  0  0  0  0  0  0  0  0  0  0  0
  1  2  1  0
  2  3  2  0
  3  4  1  0
  4  5  2  0
  5  6  1  0
  1  6  2  0
  5  7  1  0
  7  8  1  0
  8  9  1  0
  9 10  2  0
 10 11  1  0
 11 12  2  0
 12 13  1  0
  8 13  2  0
 13 14  1  0
 11 15  1  0
 15 16  1  0
 16 17  2  0
 16 18  1  0
 18 19  1  0
 19 20  2  0
 19 21  1  0
 21 22  2  0
 15 22  1  0
  9 23  1  0
  7 24  1  0
 24 25  3  0
  2 26  1  0
M  END
>  <ID>  (5) 
T1172

>  <CAS>  (5) 
101831-37-2

>  <Formula>  (5) 
C17H9Cl3N4O2

>  <MolWt>  (5) 
407.64

>  <rank>  (5) 
5

>  <final_score>  (5) 
0.0000

>  <max_tc>  (5) 
0.3014

>  <best_match>  (5) 
Resmetirom

>  <best_target>  (5) 
THR-beta

>  <physchem_compliance>  (5) 
0.0000

>  <toxic_score>  (5) 
0.6000

$$$$

     RDKit          2D

 30 33  0  0  1  0  0  0  0  0999 V2000
    2.0296   -4.7305    0.0000 C   0  0  0  0  0  0  0  0  0  0  0  0
    1.4978   -4.0998    0.0000 C   0  0  0  0  0  0  0  0  0  0  0  0
    1.7781   -3.3239    0.0000 C   0  0  0  0  0  0  0  0  0  0  0  0
    1.2463   -2.6932    0.0000 C   0  0  0  0  0  0  0  0  0  0  0  0
    0.4342   -2.8384    0.0000 C   0  0  0  0  0  0  0  0  0  0  0  0
   -0.0976   -2.2077    0.0000 C   0  0  0  0  0  0  0  0  0  0  0  0
    0.1827   -1.4318    0.0000 C   0  0  0  0  0  0  0  0  0  0  0  0
    0.9948   -1.2866    0.0000 C   0  0  0  0  0  0  0  0  0  0  0  0
    1.5266   -1.9173    0.0000 C   0  0  0  0  0  0  0  0  0  0  0  0
    2.3387   -1.7721    0.0000 C   0  0  0  0  0  0  0  0  0  0  0  0
    2.6190   -0.9961    0.0000 C   0  0  0  0  0  0  0  0  0  0  0  0
    3.4311   -0.8509    0.0000 C   0  0  0  0  0  0  0  0  0  0  0  0
    3.9629   -1.4816    0.0000 C   0  0  0  0  0  0  0  0  0  0  0  0
    3.6826   -2.2576    0.0000 C   0  0  0  0  0  0  0  0  0  0  0  0
    2.8705   -2.4028    0.0000 C   0  0  0  0  0  0  0  0  0  0  0  0
    2.5902   -3.1787    0.0000 C   0  0  0  0  0  0  0  0  0  0  0  0
    3.1220   -3.8094    0.0000 O   0  0  0  0  0  0  0  0  0  0  0  0
    4.3340   -2.7639    0.0000 C   0  0  0  0  0  0  0  0  0  0  0  0
    5.0168   -2.3009    0.0000 C   0  0  0  0  0  0  0  0  0  0  0  0
    4.7875   -1.5084    0.0000 C   0  0  0  0  0  0  0  0  0  0  0  0
    5.2939   -0.8571    0.0000 C   0  0  0  0  0  0  0  0  0  0  0  0
    4.9830   -0.0929    0.0000 C   0  0  0  0  0  0  0  0  0  0  0  0
    6.1111   -0.9700    0.0000 C   0  0  0  0  0  0  0  0  0  0  0  0
    6.6175   -0.3186    0.0000 C   0  0  0  0  0  0  0  0  0  0  0  0
    7.4347   -0.4315    0.0000 C   0  0  0  0  0  0  0  0  0  0  0  0
    7.9411    0.2198    0.0000 O   0  0  0  0  0  0  0  0  0  0  0  0
    7.7456   -1.1957    0.0000 O   0  0  0  0  0  0  0  0  0  0  0  0
    4.3228   -0.7393    0.0000 C   0  0  0  0  0  0  0  0  0  0  0  0
    1.8069   -1.1414    0.0000 C   0  0  0  0  0  0  0  0  0  0  0  0
   -0.9098   -2.3529    0.0000 O   0  0  0  0  0  0  0  0  0  0  0  0
  1  2  1  0
  3  2  1  6
  3  4  1  0
  4  5  1  6
  6  5  1  0
  6  7  1  0
  7  8  1  0
  9  8  1  0
  9  4  1  0
 10  9  1  0
 10 11  1  1
 11 12  1  0
 13 12  1  0
 14 13  1  0
 15 14  1  0
 15 10  1  0
 15 16  1  6
 16  3  1  0
 16 17  1  6
 14 18  1  1
 18 19  1  0
 20 19  1  1
 13 20  1  0
 20 21  1  0
 21 22  1  6
 21 23  1  0
 23 24  1  0
 24 25  1  0
 25 26  2  0
 25 27  1  0
 13 28  1  1
  9 29  1  1
  6 30  1  6
M  END
>  <ID>  (6) 
T1789

>  <CAS>  (6) 
459789-99-2

>  <Formula>  (6) 
C26H44O4

>  <MolWt>  (6) 
420.63

>  <rank>  (6) 
6

>  <final_score>  (6) 
0.0000

>  <max_tc>  (6) 
1.0000

>  <best_match>  (6) 
Obeticholic acid (OCA)

>  <best_target>  (6) 
FXR

>  <physchem_compliance>  (6) 
0.0000

>  <toxic_score>  (6) 
0.6000

$$$$

     RDKit          2D

 31 34  0  0  1  0  0  0  0  0999 V2000
    3.1508    0.8481    0.0000 H   0  0  0  0  0  0  0  0  0  0  0  0
    3.6826    0.2174    0.0000 C   0  0  0  0  0  0  0  0  0  0  0  0
    4.3340   -0.2889    0.0000 C   0  0  0  0  0  0  0  0  0  0  0  0
    5.0168    0.1741    0.0000 C   0  0  0  0  0  0  0  0  0  0  0  0
    4.7875    0.9666    0.0000 C   0  0  0  0  0  0  0  0  0  0  0  0
    5.2939    1.6179    0.0000 C   0  0  0  0  0  0  0  0  0  0  0  0
    4.9830    2.3821    0.0000 C   0  0  0  0  0  0  0  0  0  0  0  0
    6.1111    1.5050    0.0000 C   0  0  0  0  0  0  0  0  0  0  0  0
    6.6175    2.1564    0.0000 C   0  0  0  0  0  0  0  0  0  0  0  0
    7.4347    2.0435    0.0000 C   0  0  0  0  0  0  0  0  0  0  0  0
    7.9411    2.6948    0.0000 O   0  0  0  0  0  0  0  0  0  0  0  0
    7.7456    1.2793    0.0000 O   0  0  0  0  0  0  0  0  0  0  0  0
    3.9629    0.9934    0.0000 C   0  0  0  0  0  0  0  0  0  0  0  0
    4.3228    1.7357    0.0000 C   0  0  0  0  0  0  0  0  0  0  0  0
    3.4311    1.6241    0.0000 C   0  0  0  0  0  0  0  0  0  0  0  0
    2.6190    1.4789    0.0000 C   0  0  0  0  0  0  0  0  0  0  0  0
    2.3387    0.7029    0.0000 C   0  0  0  0  0  0  0  0  0  0  0  0
    2.0584   -0.0730    0.0000 H   0  0  0  0  0  0  0  0  0  0  0  0
    2.8705    0.0722    0.0000 C   0  0  0  0  0  0  0  0  0  0  0  0
    3.4023   -0.5585    0.0000 H   0  0  0  0  0  0  0  0  0  0  0  0
    2.5902   -0.7037    0.0000 C   0  0  0  0  0  0  0  0  0  0  0  0
    1.7781   -0.8489    0.0000 C   0  0  0  0  0  0  0  0  0  0  0  0
    1.2463   -0.2182    0.0000 C   0  0  0  0  0  0  0  0  0  0  0  0
    0.7145    0.4125    0.0000 H   0  0  0  0  0  0  0  0  0  0  0  0
    0.4342   -0.3634    0.0000 C   0  0  0  0  0  0  0  0  0  0  0  0
   -0.0976    0.2673    0.0000 C   0  0  0  0  0  0  0  0  0  0  0  0
   -0.9098    0.1221    0.0000 O   0  0  0  0  0  0  0  0  0  0  0  0
    0.1827    1.0432    0.0000 C   0  0  0  0  0  0  0  0  0  0  0  0
    0.9948    1.1884    0.0000 C   0  0  0  0  0  0  0  0  0  0  0  0
    1.5266    0.5577    0.0000 C   0  0  0  0  0  0  0  0  0  0  0  0
    1.8069    1.3336    0.0000 C   0  0  0  0  0  0  0  0  0  0  0  0
  2  1  1  6
  2  3  1  0
  3  4  1  0
  5  4  1  1
  5  6  1  0
  6  7  1  6
  6  8  1  0
  8  9  1  0
  9 10  1  0
 10 11  1  0
 10 12  2  0
 13  5  1  0
  2 13  1  0
 13 14  1  1
 13 15  1  0
 15 16  1  0
 17 16  1  0
 17 18  1  6
 19 17  1  0
  2 19  1  0
 19 20  1  1
 19 21  1  0
 21 22  1  0
 23 22  1  0
 23 24  1  1
 23 25  1  0
 26 25  1  0
 26 27  1  6
 26 28  1  0
 28 29  1  0
 30 29  1  0
 17 30  1  0
 30 23  1  0
 30 31  1  1
M  END
>  <ID>  (7) 
T2202

>  <CAS>  (7) 
434-13-9

>  <Formula>  (7) 
C24H40O3

>  <MolWt>  (7) 
376.57

>  <rank>  (7) 
7

>  <final_score>  (7) 
0.0000

>  <max_tc>  (7) 
0.5238

>  <best_match>  (7) 
Obeticholic acid (OCA)

>  <best_target>  (7) 
FXR

>  <physchem_compliance>  (7) 
0.0000

>  <toxic_score>  (7) 
0.6000

$$$$

     RDKit          2D

 34 37  0  0  1  0  0  0  0  0999 V2000
    5.6873    0.2943    0.0000 C   0  0  0  0  0  0  0  0  0  0  0  0
    6.4018   -0.1182    0.0000 C   0  0  0  0  0  0  0  0  0  0  0  0
    7.1162    0.2943    0.0000 N   0  0  0  0  0  0  0  0  0  0  0  0
    7.8307   -0.1182    0.0000 C   0  0  0  0  0  0  0  0  0  0  0  0
    7.8307   -0.9432    0.0000 O   0  0  0  0  0  0  0  0  0  0  0  0
    8.5452    0.2943    0.0000 C   0  0  0  0  0  0  0  0  0  0  0  0
    9.2597   -0.1182    0.0000 C   0  0  0  0  0  0  0  0  0  0  0  0
    9.9741    0.2943    0.0000 C   0  0  0  0  0  0  0  0  0  0  0  0
   10.6886   -0.1182    0.0000 C   0  0  0  0  0  0  0  0  0  0  0  0
   11.4423    0.2173    0.0000 C   0  0  0  0  0  0  0  0  0  0  0  0
   11.9943   -0.3957    0.0000 C   0  0  0  0  0  0  0  0  0  0  0  0
   11.5818   -1.1102    0.0000 C   0  0  0  0  0  0  0  0  0  0  0  0
   11.8367   -1.8948    0.0000 C   0  0  0  0  0  0  0  0  0  0  0  0
   12.6437   -2.0664    0.0000 C   0  0  0  0  0  0  0  0  0  0  0  0
   12.8987   -2.8510    0.0000 C   0  0  0  0  0  0  0  0  0  0  0  0
   12.3466   -3.4641    0.0000 C   0  0  0  0  0  0  0  0  0  0  0  0
   12.6016   -4.2487    0.0000 C   0  0  0  0  0  0  0  0  0  0  0  0
   12.0495   -4.8618    0.0000 C   0  0  0  0  0  0  0  0  0  0  0  0
   11.2426   -4.6903    0.0000 C   0  0  0  0  0  0  0  0  0  0  0  0
   10.9876   -3.9056    0.0000 C   0  0  0  0  0  0  0  0  0  0  0  0
   11.5397   -3.2926    0.0000 C   0  0  0  0  0  0  0  0  0  0  0  0
   11.2847   -2.5079    0.0000 C   0  0  0  0  0  0  0  0  0  0  0  0
   10.4777   -2.3364    0.0000 C   0  0  0  0  0  0  0  0  0  0  0  0
   10.2228   -1.5518    0.0000 C   0  0  0  0  0  0  0  0  0  0  0  0
   10.7748   -0.9387    0.0000 C   0  0  0  0  0  0  0  0  0  0  0  0
    9.9902   -0.6837    0.0000 C   0  0  0  0  0  0  0  0  0  0  0  0
   10.7327   -3.1210    0.0000 C   0  0  0  0  0  0  0  0  0  0  0  0
   12.3045   -5.6464    0.0000 O   0  0  0  0  0  0  0  0  0  0  0  0
   13.1957   -1.4533    0.0000 O   0  0  0  0  0  0  0  0  0  0  0  0
    9.9741    1.1193    0.0000 C   0  0  0  0  0  0  0  0  0  0  0  0
    4.9728   -0.1182    0.0000 S   0  0  0  0  0  0  0  0  0  0  0  0
    4.2584   -0.5307    0.0000 O   0  0  0  0  0  0  0  0  0  0  0  0
    4.5603    0.5963    0.0000 O   0  0  0  0  0  0  0  0  0  0  0  0
    5.3853   -0.8327    0.0000 O   0  0  0  0  0  0  0  0  0  0  0  0
  1  2  1  0
  2  3  1  0
  3  4  1  0
  4  5  2  0
  4  6  1  0
  6  7  1  0
  8  7  1  0
  9  8  1  0
  9 10  1  1
 10 11  1  0
 12 11  1  1
 13 12  1  0
 13 14  1  6
 14 15  1  0
 16 15  1  6
 16 17  1  0
 18 17  1  0
 18 19  1  0
 19 20  1  0
 21 20  1  0
 21 16  1  0
 22 21  1  0
 13 22  1  0
 22 23  1  1
 23 24  1  0
 25 24  1  0
 25  9  1  0
 12 25  1  0
 25 26  1  1
 21 27  1  1
 18 28  1  6
 14 29  1  1
  8 30  1  1
  1 31  1  0
 31 32  2  0
 31 33  2  0
 31 34  1  0
M  END
>  <ID>  (8) 
T2532

>  <CAS>  (8) 
14605-22-2

>  <Formula>  (8) 
C26H45NO6S

>  <MolWt>  (8) 
499.7

>  <rank>  (8) 
8

>  <final_score>  (8) 
0.0000

>  <max_tc>  (8) 
0.4722

>  <best_match>  (8) 
Obeticholic acid (OCA)

>  <best_target>  (8) 
FXR

>  <physchem_compliance>  (8) 
0.0000

>  <toxic_score>  (8) 
0.8000

$$$$

     RDKit          2D

 35 38  0  0  1  0  0  0  0  0999 V2000
   -2.0293   -6.2238    0.0000 O   0  0  0  0  0  0  0  0  0  0  0  0
   -2.2842   -5.4392    0.0000 C   0  0  0  0  0  0  0  0  0  0  0  0
   -1.7322   -4.8261    0.0000 C   0  0  0  0  0  0  0  0  0  0  0  0
   -0.9252   -4.9976    0.0000 C   0  0  0  0  0  0  0  0  0  0  0  0
   -0.3732   -4.3845    0.0000 C   0  0  0  0  0  0  0  0  0  0  0  0
    0.2399   -3.8325    0.0000 C   0  0  0  0  0  0  0  0  0  0  0  0
    0.3805   -4.7201    0.0000 C   0  0  0  0  0  0  0  0  0  0  0  0
    1.0950   -4.3076    0.0000 C   0  0  0  0  0  0  0  0  0  0  0  0
    1.8094   -4.7201    0.0000 C   0  0  0  0  0  0  0  0  0  0  0  0
    2.5239   -4.3076    0.0000 C   0  0  0  0  0  0  0  0  0  0  0  0
    3.2384   -4.7201    0.0000 C   0  0  0  0  0  0  0  0  0  0  0  0
    3.9529   -4.3076    0.0000 O   0  0  0  0  0  0  0  0  0  0  0  0
    4.6673   -4.7201    0.0000 C   0  0  0  0  0  0  0  0  0  0  0  0
    3.2384   -5.5451    0.0000 O   0  0  0  0  0  0  0  0  0  0  0  0
    1.0950   -3.4826    0.0000 C   0  0  0  0  0  0  0  0  0  0  0  0
    0.2943   -5.5405    0.0000 C   0  0  0  0  0  0  0  0  0  0  0  0
   -0.5127   -5.7121    0.0000 C   0  0  0  0  0  0  0  0  0  0  0  0
    1.0724   -5.1694    0.0000 H   0  0  0  0  0  0  0  0  0  0  0  0
   -0.6281   -3.5999    0.0000 C   0  0  0  0  0  0  0  0  0  0  0  0
   -0.0761   -2.9868    0.0000 O   0  0  0  0  0  0  0  0  0  0  0  0
   -1.4351   -3.4284    0.0000 C   0  0  0  0  0  0  0  0  0  0  0  0
   -1.9871   -4.0415    0.0000 C   0  0  0  0  0  0  0  0  0  0  0  0
   -2.7941   -3.8699    0.0000 C   0  0  0  0  0  0  0  0  0  0  0  0
   -2.2421   -3.2568    0.0000 C   0  0  0  0  0  0  0  0  0  0  0  0
   -3.3461   -4.4830    0.0000 C   0  0  0  0  0  0  0  0  0  0  0  0
   -3.0912   -5.2676    0.0000 C   0  0  0  0  0  0  0  0  0  0  0  0
   -4.1531   -4.3115    0.0000 C   0  0  0  0  0  0  0  0  0  0  0  0
   -4.4080   -3.5269    0.0000 C   0  0  0  0  0  0  0  0  0  0  0  0
   -5.2150   -3.3553    0.0000 O   0  0  0  0  0  0  0  0  0  0  0  0
   -3.8560   -2.9138    0.0000 C   0  0  0  0  0  0  0  0  0  0  0  0
   -3.0490   -3.0853    0.0000 C   0  0  0  0  0  0  0  0  0  0  0  0
   -3.8982   -5.0961    0.0000 H   0  0  0  0  0  0  0  0  0  0  0  0
   -2.5391   -4.6545    0.0000 H   0  0  0  0  0  0  0  0  0  0  0  0
   -1.1801   -4.2130    0.0000 H   0  0  0  0  0  0  0  0  0  0  0  0
   -1.4772   -5.6107    0.0000 H   0  0  0  0  0  0  0  0  0  0  0  0
  2  1  1  6
  3  2  1  0
  3  4  1  0
  4  5  1  0
  5  6  1  1
  5  7  1  0
  7  8  1  0
  8  9  1  0
  9 10  1  0
 10 11  1  0
 11 12  1  0
 12 13  1  0
 11 14  2  0
  8 15  1  6
  7 16  1  0
 16 17  1  0
  4 17  1  0
  7 18  1  6
  5 19  1  0
 19 20  1  6
 19 21  1  0
 22 21  1  0
  3 22  1  0
 22 23  1  0
 23 24  1  1
 23 25  1  0
 25 26  1  0
  2 26  1  0
 25 27  1  0
 28 27  1  0
 28 29  1  6
 28 30  1  0
 30 31  1  0
 23 31  1  0
 25 32  1  1
 22 33  1  6
  4 34  1  6
  3 35  1  1
M  END
>  <ID>  (9) 
T2744

>  <CAS>  (9) 
1448-36-8

>  <Formula>  (9) 
C25H42O5

>  <MolWt>  (9) 
422.6

>  <rank>  (9) 
9

>  <final_score>  (9) 
0.0000

>  <max_tc>  (9) 
0.3038

>  <best_match>  (9) 
Obeticholic acid (OCA)

>  <best_target>  (9) 
FXR

>  <physchem_compliance>  (9) 
0.0000

>  <toxic_score>  (9) 
0.6000

$$$$

     RDKit          2D

 38 41  0  0  1  0  0  0  0  0999 V2000
    4.2348   -2.0294    0.0000 H   0  0  0  0  0  0  0  0  0  0  0  0
    4.2780   -1.2055    0.0000 C   0  0  0  0  0  0  0  0  0  0  0  0
    3.5243   -1.5411    0.0000 C   0  0  0  0  0  0  0  0  0  0  0  0
    2.9722   -0.9280    0.0000 C   0  0  0  0  0  0  0  0  0  0  0  0
    3.3847   -0.2135    0.0000 C   0  0  0  0  0  0  0  0  0  0  0  0
    3.9368    0.3996    0.0000 H   0  0  0  0  0  0  0  0  0  0  0  0
    3.1298    0.5711    0.0000 C   0  0  0  0  0  0  0  0  0  0  0  0
    2.5778   -0.0420    0.0000 H   0  0  0  0  0  0  0  0  0  0  0  0
    2.3228    0.7427    0.0000 C   0  0  0  0  0  0  0  0  0  0  0  0
    1.7708    0.1296    0.0000 O   0  0  0  0  0  0  0  0  0  0  0  0
    2.0679    1.5273    0.0000 C   0  0  0  0  0  0  0  0  0  0  0  0
    2.6199    2.1404    0.0000 C   0  0  0  0  0  0  0  0  0  0  0  0
    3.1720    2.7535    0.0000 H   0  0  0  0  0  0  0  0  0  0  0  0
    2.3650    2.9250    0.0000 C   0  0  0  0  0  0  0  0  0  0  0  0
    2.9170    3.5381    0.0000 C   0  0  0  0  0  0  0  0  0  0  0  0
    2.6621    4.3227    0.0000 O   0  0  0  0  0  0  0  0  0  0  0  0
    3.7240    3.3666    0.0000 C   0  0  0  0  0  0  0  0  0  0  0  0
    3.9789    2.5819    0.0000 C   0  0  0  0  0  0  0  0  0  0  0  0
    3.4269    1.9688    0.0000 C   0  0  0  0  0  0  0  0  0  0  0  0
    4.2339    1.7973    0.0000 C   0  0  0  0  0  0  0  0  0  0  0  0
    3.6818    1.1842    0.0000 C   0  0  0  0  0  0  0  0  0  0  0  0
    2.8749    1.3557    0.0000 H   0  0  0  0  0  0  0  0  0  0  0  0
    4.4888    1.0127    0.0000 C   0  0  0  0  0  0  0  0  0  0  0  0
    4.7437    0.2281    0.0000 C   0  0  0  0  0  0  0  0  0  0  0  0
    5.5507    0.0565    0.0000 O   0  0  0  0  0  0  0  0  0  0  0  0
    4.1917   -0.3850    0.0000 C   0  0  0  0  0  0  0  0  0  0  0  0
    4.9763   -0.6400    0.0000 C   0  0  0  0  0  0  0  0  0  0  0  0
    4.9924   -1.6180    0.0000 C   0  0  0  0  0  0  0  0  0  0  0  0
    4.9924   -2.4430    0.0000 C   0  0  0  0  0  0  0  0  0  0  0  0
    5.7069   -1.2055    0.0000 C   0  0  0  0  0  0  0  0  0  0  0  0
    6.4214   -1.6180    0.0000 C   0  0  0  0  0  0  0  0  0  0  0  0
    7.1358   -1.2055    0.0000 C   0  0  0  0  0  0  0  0  0  0  0  0
    7.1358   -0.3805    0.0000 O   0  0  0  0  0  0  0  0  0  0  0  0
    7.8503   -1.6180    0.0000 N   0  0  0  0  0  0  0  0  0  0  0  0
    8.5648   -1.2055    0.0000 C   0  0  0  0  0  0  0  0  0  0  0  0
    9.2792   -1.6180    0.0000 C   0  0  0  0  0  0  0  0  0  0  0  0
    9.9937   -1.2055    0.0000 O   0  0  0  0  0  0  0  0  0  0  0  0
    9.2792   -2.4430    0.0000 O   0  0  0  0  0  0  0  0  0  0  0  0
  2  1  1  6
  2  3  1  0
  3  4  1  0
  5  4  1  0
  5  6  1  6
  7  5  1  0
  7  8  1  1
  7  9  1  0
  9 10  1  6
  9 11  1  0
 12 11  1  0
 12 13  1  1
 12 14  1  0
 15 14  1  0
 15 16  1  6
 15 17  1  0
 17 18  1  0
 19 18  1  0
 19 12  1  0
 19 20  1  1
 21 19  1  0
  7 21  1  0
 21 22  1  6
 21 23  1  0
 24 23  1  0
 24 25  1  6
 26 24  1  0
 26  2  1  0
  5 26  1  0
 26 27  1  1
  2 28  1  0
 28 29  1  1
 28 30  1  0
 30 31  1  0
 31 32  1  0
 32 33  2  0
 32 34  1  0
 34 35  1  0
 35 36  1  0
 36 37  1  0
 36 38  2  0
M  END
>  <ID>  (10) 
T2831

>  <CAS>  (10) 
475-31-0

>  <Formula>  (10) 
C26H43NO6

>  <MolWt>  (10) 
465.62

>  <rank>  (10) 
10

>  <final_score>  (10) 
0.0000

>  <max_tc>  (10) 
0.3210

>  <best_match>  (10) 
Obeticholic acid (OCA)

>  <best_target>  (10) 
FXR

>  <physchem_compliance>  (10) 
0.0000

>  <toxic_score>  (10) 
0.8000

$$$$

     RDKit          2D

 34 37  0  0  1  0  0  0  0  0999 V2000
    3.1220   -1.3344    0.0000 O   0  0  0  0  0  0  0  0  0  0  0  0
    2.5902   -0.7037    0.0000 C   0  0  0  0  0  0  0  0  0  0  0  0
    2.8705    0.0722    0.0000 C   0  0  0  0  0  0  0  0  0  0  0  0
    3.6826    0.2174    0.0000 C   0  0  0  0  0  0  0  0  0  0  0  0
    3.9629    0.9934    0.0000 C   0  0  0  0  0  0  0  0  0  0  0  0
    4.3228    1.7357    0.0000 C   0  0  0  0  0  0  0  0  0  0  0  0
    4.7875    0.9666    0.0000 C   0  0  0  0  0  0  0  0  0  0  0  0
    5.2939    1.6179    0.0000 C   0  0  0  0  0  0  0  0  0  0  0  0
    6.1111    1.5050    0.0000 C   0  0  0  0  0  0  0  0  0  0  0  0
    6.6175    2.1564    0.0000 C   0  0  0  0  0  0  0  0  0  0  0  0
    7.4347    2.0435    0.0000 C   0  0  0  0  0  0  0  0  0  0  0  0
    7.9411    2.6948    0.0000 O   0  0  0  0  0  0  0  0  0  0  0  0
    7.7456    1.2793    0.0000 O   0  0  0  0  0  0  0  0  0  0  0  0
    4.9830    2.3821    0.0000 C   0  0  0  0  0  0  0  0  0  0  0  0
    5.0168    0.1741    0.0000 C   0  0  0  0  0  0  0  0  0  0  0  0
    4.3340   -0.2889    0.0000 C   0  0  0  0  0  0  0  0  0  0  0  0
    5.5977    0.8111    0.0000 H   0  0  0  0  0  0  0  0  0  0  0  0
    3.4311    1.6241    0.0000 C   0  0  0  0  0  0  0  0  0  0  0  0
    3.7114    2.4000    0.0000 O   0  0  0  0  0  0  0  0  0  0  0  0
    2.6190    1.4789    0.0000 C   0  0  0  0  0  0  0  0  0  0  0  0
    2.3387    0.7029    0.0000 C   0  0  0  0  0  0  0  0  0  0  0  0
    1.5266    0.5577    0.0000 C   0  0  0  0  0  0  0  0  0  0  0  0
    1.8069    1.3336    0.0000 C   0  0  0  0  0  0  0  0  0  0  0  0
    1.2463   -0.2182    0.0000 C   0  0  0  0  0  0  0  0  0  0  0  0
    1.7781   -0.8489    0.0000 C   0  0  0  0  0  0  0  0  0  0  0  0
    0.4342   -0.3634    0.0000 C   0  0  0  0  0  0  0  0  0  0  0  0
   -0.0976    0.2673    0.0000 C   0  0  0  0  0  0  0  0  0  0  0  0
   -0.9098    0.1221    0.0000 O   0  0  0  0  0  0  0  0  0  0  0  0
    0.1827    1.0432    0.0000 C   0  0  0  0  0  0  0  0  0  0  0  0
    0.9948    1.1884    0.0000 C   0  0  0  0  0  0  0  0  0  0  0  0
    0.9660   -0.9941    0.0000 H   0  0  0  0  0  0  0  0  0  0  0  0
    2.0584   -0.0730    0.0000 H   0  0  0  0  0  0  0  0  0  0  0  0
    3.1508    0.8481    0.0000 H   0  0  0  0  0  0  0  0  0  0  0  0
    3.4023   -0.5585    0.0000 H   0  0  0  0  0  0  0  0  0  0  0  0
  2  1  1  6
  3  2  1  0
  3  4  1  0
  4  5  1  0
  5  6  1  1
  5  7  1  0
  7  8  1  0
  8  9  1  0
  9 10  1  0
 10 11  1  0
 11 12  1  0
 11 13  2  0
  8 14  1  6
  7 15  1  0
 15 16  1  0
  4 16  1  0
  7 17  1  6
  5 18  1  0
 18 19  1  6
 18 20  1  0
 21 20  1  0
  3 21  1  0
 21 22  1  0
 22 23  1  1
 22 24  1  0
 24 25  1  0
  2 25  1  0
 24 26  1  0
 27 26  1  0
 27 28  1  6
 27 29  1  0
 29 30  1  0
 22 30  1  0
 24 31  1  1
 21 32  1  6
  4 33  1  6
  3 34  1  1
M  END
>  <ID>  (11) 
T2963

>  <CAS>  (11) 
81-25-4

>  <Formula>  (11) 
C24H40O5

>  <MolWt>  (11) 
408.57

>  <rank>  (11) 
11

>  <final_score>  (11) 
0.0000

>  <max_tc>  (11) 
0.3889

>  <best_match>  (11) 
Obeticholic acid (OCA)

>  <best_target>  (11) 
FXR

>  <physchem_compliance>  (11) 
0.0000

>  <toxic_score>  (11) 
0.8000

$$$$

     RDKit          2D

 28 31  0  0  0  0  0  0  0  0999 V2000
    2.8728   -3.9050    0.0000 C   0  0  0  0  0  0  0  0  0  0  0  0
    2.5619   -3.1408    0.0000 C   0  0  0  0  0  0  0  0  0  0  0  0
    1.7447   -3.0280    0.0000 C   0  0  0  0  0  0  0  0  0  0  0  0
    1.2383   -3.6793    0.0000 C   0  0  0  0  0  0  0  0  0  0  0  0
    0.4211   -3.5665    0.0000 C   0  0  0  0  0  0  0  0  0  0  0  0
   -0.0853   -4.2178    0.0000 O   0  0  0  0  0  0  0  0  0  0  0  0
    0.1102   -2.8023    0.0000 O   0  0  0  0  0  0  0  0  0  0  0  0
    3.0683   -2.4895    0.0000 C   0  0  0  0  0  0  0  0  0  0  0  0
    2.8390   -1.6970    0.0000 C   0  0  0  0  0  0  0  0  0  0  0  0
    3.5218   -1.2340    0.0000 C   0  0  0  0  0  0  0  0  0  0  0  0
    4.1731   -1.7404    0.0000 C   0  0  0  0  0  0  0  0  0  0  0  0
    4.9853   -1.5952    0.0000 C   0  0  0  0  0  0  0  0  0  0  0  0
    5.2655   -0.8192    0.0000 C   0  0  0  0  0  0  0  0  0  0  0  0
    6.0777   -0.6740    0.0000 C   0  0  0  0  0  0  0  0  0  0  0  0
    6.6095   -1.3047    0.0000 C   0  0  0  0  0  0  0  0  0  0  0  0
    7.4216   -1.1595    0.0000 C   0  0  0  0  0  0  0  0  0  0  0  0
    7.9534   -1.7902    0.0000 C   0  0  0  0  0  0  0  0  0  0  0  0
    8.7655   -1.6450    0.0000 O   0  0  0  0  0  0  0  0  0  0  0  0
    7.6731   -2.5662    0.0000 C   0  0  0  0  0  0  0  0  0  0  0  0
    6.8610   -2.7114    0.0000 C   0  0  0  0  0  0  0  0  0  0  0  0
    6.3292   -2.0807    0.0000 C   0  0  0  0  0  0  0  0  0  0  0  0
    6.0489   -2.8566    0.0000 C   0  0  0  0  0  0  0  0  0  0  0  0
    5.5171   -2.2259    0.0000 C   0  0  0  0  0  0  0  0  0  0  0  0
    5.2368   -3.0018    0.0000 C   0  0  0  0  0  0  0  0  0  0  0  0
    4.4247   -3.1470    0.0000 C   0  0  0  0  0  0  0  0  0  0  0  0
    4.1444   -3.9229    0.0000 O   0  0  0  0  0  0  0  0  0  0  0  0
    3.8928   -2.5163    0.0000 C   0  0  0  0  0  0  0  0  0  0  0  0
    3.5330   -3.2587    0.0000 C   0  0  0  0  0  0  0  0  0  0  0  0
  1  2  1  0
  2  3  1  0
  3  4  1  0
  4  5  1  0
  5  6  1  0
  5  7  2  0
  2  8  1  0
  8  9  1  0
  9 10  1  0
 10 11  1  0
 11 12  1  0
 12 13  1  0
 13 14  1  0
 14 15  1  0
 15 16  1  0
 16 17  1  0
 17 18  1  0
 17 19  1  0
 19 20  1  0
 20 21  1  0
 15 21  1  0
 21 22  1  0
 21 23  1  0
 12 23  1  0
 23 24  1  0
 24 25  1  0
 25 26  1  0
 25 27  1  0
  8 27  1  0
 11 27  1  0
 27 28  1  0
M  END
>  <ID>  (12) 
T2965

>  <CAS>  (12) 
83-44-3

>  <Formula>  (12) 
C24H40O4

>  <MolWt>  (12) 
392.57

>  <rank>  (12) 
12

>  <final_score>  (12) 
0.0000

>  <max_tc>  (12) 
0.5135

>  <best_match>  (12) 
Aramchol

>  <best_target>  (12) 
SCD1

>  <physchem_compliance>  (12) 
0.0000

>  <toxic_score>  (12) 
0.8000

$$$$

     RDKit          2D

 32 35  0  0  1  0  0  0  0  0999 V2000
    3.1508    0.8481    0.0000 H   0  0  0  0  0  0  0  0  0  0  0  0
    3.6826    0.2174    0.0000 C   0  0  0  0  0  0  0  0  0  0  0  0
    4.3340   -0.2889    0.0000 C   0  0  0  0  0  0  0  0  0  0  0  0
    5.0168    0.1741    0.0000 C   0  0  0  0  0  0  0  0  0  0  0  0
    4.7875    0.9666    0.0000 C   0  0  0  0  0  0  0  0  0  0  0  0
    5.2939    1.6179    0.0000 C   0  0  0  0  0  0  0  0  0  0  0  0
    4.9830    2.3821    0.0000 C   0  0  0  0  0  0  0  0  0  0  0  0
    6.1111    1.5050    0.0000 C   0  0  0  0  0  0  0  0  0  0  0  0
    6.6175    2.1564    0.0000 C   0  0  0  0  0  0  0  0  0  0  0  0
    7.4347    2.0435    0.0000 C   0  0  0  0  0  0  0  0  0  0  0  0
    7.9411    2.6948    0.0000 O   0  0  0  0  0  0  0  0  0  0  0  0
    7.7456    1.2793    0.0000 O   0  0  0  0  0  0  0  0  0  0  0  0
    3.9629    0.9934    0.0000 C   0  0  0  0  0  0  0  0  0  0  0  0
    4.3228    1.7357    0.0000 C   0  0  0  0  0  0  0  0  0  0  0  0
    3.4311    1.6241    0.0000 C   0  0  0  0  0  0  0  0  0  0  0  0
    2.6190    1.4789    0.0000 C   0  0  0  0  0  0  0  0  0  0  0  0
    2.3387    0.7029    0.0000 C   0  0  0  0  0  0  0  0  0  0  0  0
    2.0584   -0.0730    0.0000 H   0  0  0  0  0  0  0  0  0  0  0  0
    2.8705    0.0722    0.0000 C   0  0  0  0  0  0  0  0  0  0  0  0
    3.4023   -0.5585    0.0000 H   0  0  0  0  0  0  0  0  0  0  0  0
    2.5902   -0.7037    0.0000 C   0  0  0  0  0  0  0  0  0  0  0  0
    1.7781   -0.8489    0.0000 C   0  0  0  0  0  0  0  0  0  0  0  0
    1.4978   -1.6248    0.0000 O   0  0  0  0  0  0  0  0  0  0  0  0
    1.2463   -0.2182    0.0000 C   0  0  0  0  0  0  0  0  0  0  0  0
    0.7145    0.4125    0.0000 H   0  0  0  0  0  0  0  0  0  0  0  0
    0.4342   -0.3634    0.0000 C   0  0  0  0  0  0  0  0  0  0  0  0
   -0.0976    0.2673    0.0000 C   0  0  0  0  0  0  0  0  0  0  0  0
   -0.9098    0.1221    0.0000 O   0  0  0  0  0  0  0  0  0  0  0  0
    0.1827    1.0432    0.0000 C   0  0  0  0  0  0  0  0  0  0  0  0
    0.9948    1.1884    0.0000 C   0  0  0  0  0  0  0  0  0  0  0  0
    1.5266    0.5577    0.0000 C   0  0  0  0  0  0  0  0  0  0  0  0
    1.8069    1.3336    0.0000 C   0  0  0  0  0  0  0  0  0  0  0  0
  2  1  1  6
  2  3  1  0
  3  4  1  0
  5  4  1  1
  5  6  1  0
  6  7  1  6
  6  8  1  0
  8  9  1  0
  9 10  1  0
 10 11  1  0
 10 12  2  0
 13  5  1  0
  2 13  1  0
 13 14  1  1
 13 15  1  0
 15 16  1  0
 17 16  1  0
 17 18  1  6
 19 17  1  0
  2 19  1  0
 19 20  1  1
 19 21  1  0
 22 21  1  0
 22 23  1  6
 24 22  1  0
 24 25  1  1
 24 26  1  0
 27 26  1  0
 27 28  1  6
 27 29  1  0
 29 30  1  0
 31 30  1  0
 17 31  1  0
 31 24  1  0
 31 32  1  1
M  END
>  <ID>  (13) 
T2968

>  <CAS>  (13) 
83-49-8

>  <Formula>  (13) 
C24H40O4

>  <MolWt>  (13) 
392.57

>  <rank>  (13) 
13

>  <final_score>  (13) 
0.0000

>  <max_tc>  (13) 
0.5079

>  <best_match>  (13) 
Obeticholic acid (OCA)

>  <best_target>  (13) 
FXR

>  <physchem_compliance>  (13) 
0.0000

>  <toxic_score>  (13) 
0.6000

$$$$

     RDKit          2D

 29 31  0  0  0  0  0  0  0  0999 V2000
    1.4289   -2.4750    0.0000 C   0  0  0  0  0  0  0  0  0  0  0  0
    2.1434   -2.8875    0.0000 C   0  0  0  0  0  0  0  0  0  0  0  0
    2.8579   -2.4750    0.0000 C   0  0  0  0  0  0  0  0  0  0  0  0
    2.1434   -3.7125    0.0000 C   0  0  0  0  0  0  0  0  0  0  0  0
    2.8579   -4.1250    0.0000 C   0  0  0  0  0  0  0  0  0  0  0  0
    2.8579   -4.9500    0.0000 C   0  0  0  0  0  0  0  0  0  0  0  0
    2.1434   -5.3625    0.0000 N   0  0  0  0  0  0  0  0  0  0  0  0
    1.4289   -4.9500    0.0000 N   0  0  0  0  0  0  0  0  0  0  0  0
    1.4289   -4.1250    0.0000 C   0  0  0  0  0  0  0  0  0  0  0  0
    0.7145   -3.7125    0.0000 O   0  0  0  0  0  0  0  0  0  0  0  0
    3.5724   -5.3625    0.0000 O   0  0  0  0  0  0  0  0  0  0  0  0
    3.5724   -6.1875    0.0000 C   0  0  0  0  0  0  0  0  0  0  0  0
    4.2868   -6.6000    0.0000 C   0  0  0  0  0  0  0  0  0  0  0  0
    4.2868   -7.4250    0.0000 C   0  0  0  0  0  0  0  0  0  0  0  0
    3.5724   -7.8375    0.0000 C   0  0  0  0  0  0  0  0  0  0  0  0
    2.8579   -7.4250    0.0000 C   0  0  0  0  0  0  0  0  0  0  0  0
    2.8579   -6.6000    0.0000 C   0  0  0  0  0  0  0  0  0  0  0  0
    2.1434   -6.1875    0.0000 Cl  0  0  0  0  0  0  0  0  0  0  0  0
    3.5724   -8.6625    0.0000 N   0  0  0  0  0  0  0  0  0  0  0  0
    4.2868   -9.0750    0.0000 C   0  0  0  0  0  0  0  0  0  0  0  0
    5.0013   -8.6625    0.0000 O   0  0  0  0  0  0  0  0  0  0  0  0
    4.2868   -9.9000    0.0000 N   0  0  0  0  0  0  0  0  0  0  0  0
    3.5724  -10.3125    0.0000 C   0  0  0  0  0  0  0  0  0  0  0  0
    3.5724  -11.1375    0.0000 O   0  0  0  0  0  0  0  0  0  0  0  0
    2.8579   -9.9000    0.0000 C   0  0  0  0  0  0  0  0  0  0  0  0
    2.8579   -9.0750    0.0000 N   0  0  0  0  0  0  0  0  0  0  0  0
    2.1434  -10.3125    0.0000 C   0  0  0  0  0  0  0  0  0  0  0  0
    1.4289  -10.7250    0.0000 N   0  0  0  0  0  0  0  0  0  0  0  0
    5.0013   -6.1875    0.0000 Cl  0  0  0  0  0  0  0  0  0  0  0  0
  1  2  1  0
  2  3  1  0
  2  4  1  0
  4  5  2  0
  5  6  1  0
  6  7  2  0
  7  8  1  0
  8  9  1  0
  4  9  1  0
  9 10  2  0
  6 11  1  0
 11 12  1  0
 12 13  1  0
 13 14  2  0
 14 15  1  0
 15 16  2  0
 16 17  1  0
 12 17  2  0
 17 18  1  0
 15 19  1  0
 19 20  1  0
 20 21  2  0
 20 22  1  0
 22 23  1  0
 23 24  2  0
 23 25  1  0
 25 26  2  0
 19 26  1  0
 25 27  1  0
 27 28  3  0
 13 29  1  0
M  END
>  <ID>  (14) 
T3595

>  <CAS>  (14) 
920509-32-6

>  <Formula>  (14) 
C17H12CL2N6O4

>  <MolWt>  (14) 
435.22

>  <rank>  (14) 
14

>  <final_score>  (14) 
0.0000

>  <max_tc>  (14) 
1.0000

>  <best_match>  (14) 
Resmetirom

>  <best_target>  (14) 
THR-beta

>  <physchem_compliance>  (14) 
0.0000

>  <toxic_score>  (14) 
0.6000

$$$$

     RDKit          2D

 29 32  0  0  1  0  0  0  0  0999 V2000
    0.6857    2.5951    0.0000 C   0  0  0  0  0  0  0  0  0  0  0  0
    1.4978    2.4498    0.0000 C   0  0  0  0  0  0  0  0  0  0  0  0
    1.7781    1.6739    0.0000 C   0  0  0  0  0  0  0  0  0  0  0  0
    2.5902    1.5287    0.0000 C   0  0  0  0  0  0  0  0  0  0  0  0
    3.1220    2.1594    0.0000 O   0  0  0  0  0  0  0  0  0  0  0  0
    2.8705    0.7528    0.0000 C   0  0  0  0  0  0  0  0  0  0  0  0
    3.6826    0.6076    0.0000 C   0  0  0  0  0  0  0  0  0  0  0  0
    4.3340    1.1139    0.0000 C   0  0  0  0  0  0  0  0  0  0  0  0
    5.0168    0.6509    0.0000 C   0  0  0  0  0  0  0  0  0  0  0  0
    4.7875   -0.1416    0.0000 C   0  0  0  0  0  0  0  0  0  0  0  0
    5.2939   -0.7929    0.0000 C   0  0  0  0  0  0  0  0  0  0  0  0
    4.9830   -1.5571    0.0000 C   0  0  0  0  0  0  0  0  0  0  0  0
    6.1111   -0.6800    0.0000 C   0  0  0  0  0  0  0  0  0  0  0  0
    6.6175   -1.3314    0.0000 C   0  0  0  0  0  0  0  0  0  0  0  0
    7.4347   -1.2185    0.0000 C   0  0  0  0  0  0  0  0  0  0  0  0
    7.9411   -1.8698    0.0000 O   0  0  0  0  0  0  0  0  0  0  0  0
    3.9629   -0.1684    0.0000 C   0  0  0  0  0  0  0  0  0  0  0  0
    4.3228   -0.9107    0.0000 C   0  0  0  0  0  0  0  0  0  0  0  0
    3.4311   -0.7991    0.0000 C   0  0  0  0  0  0  0  0  0  0  0  0
    2.6190   -0.6539    0.0000 C   0  0  0  0  0  0  0  0  0  0  0  0
    2.3387    0.1221    0.0000 C   0  0  0  0  0  0  0  0  0  0  0  0
    1.5266    0.2673    0.0000 C   0  0  0  0  0  0  0  0  0  0  0  0
    1.8069   -0.5086    0.0000 C   0  0  0  0  0  0  0  0  0  0  0  0
    0.9948   -0.3634    0.0000 C   0  0  0  0  0  0  0  0  0  0  0  0
    0.1827   -0.2182    0.0000 C   0  0  0  0  0  0  0  0  0  0  0  0
   -0.0976    0.5577    0.0000 C   0  0  0  0  0  0  0  0  0  0  0  0
   -0.9098    0.7029    0.0000 O   0  0  0  0  0  0  0  0  0  0  0  0
    0.4342    1.1884    0.0000 C   0  0  0  0  0  0  0  0  0  0  0  0
    1.2463    1.0432    0.0000 C   0  0  0  0  0  0  0  0  0  0  0  0
  1  2  1  0
  3  2  1  6
  4  3  1  0
  4  5  1  6
  6  4  1  1
  6  7  1  0
  7  8  1  6
  8  9  1  0
 10  9  1  6
 10 11  1  0
 11 12  1  1
 11 13  1  0
 13 14  1  0
 14 15  1  0
 15 16  1  0
 17 10  1  0
  7 17  1  0
 17 18  1  6
 17 19  1  0
 19 20  1  0
 21 20  1  6
  6 21  1  0
 21 22  1  0
 22 23  1  6
 22 24  1  0
 24 25  1  0
 26 25  1  0
 26 27  1  1
 26 28  1  0
 29 28  1  1
  3 29  1  0
 22 29  1  0
M  END
>  <ID>  (15) 
T4083

>  <CAS>  (15) 
1632118-69-4

>  <Formula>  (15) 
C26H46O3

>  <MolWt>  (15) 
406.64

>  <rank>  (15) 
15

>  <final_score>  (15) 
0.0000

>  <max_tc>  (15) 
0.7593

>  <best_match>  (15) 
Obeticholic acid (OCA)

>  <best_target>  (15) 
FXR

>  <physchem_compliance>  (15) 
0.0000

>  <toxic_score>  (15) 
0.4000

$$$$

     RDKit          2D

 34 37  0  0  1  0  0  0  0  0999 V2000
    4.9924   -0.7930    0.0000 C   0  0  0  0  0  0  0  0  0  0  0  0
    4.9924   -1.6180    0.0000 C   0  0  0  0  0  0  0  0  0  0  0  0
    5.7069   -2.0305    0.0000 C   0  0  0  0  0  0  0  0  0  0  0  0
    6.4214   -1.6180    0.0000 C   0  0  0  0  0  0  0  0  0  0  0  0
    7.1358   -2.0305    0.0000 C   0  0  0  0  0  0  0  0  0  0  0  0
    7.1358   -2.8555    0.0000 O   0  0  0  0  0  0  0  0  0  0  0  0
    7.8503   -1.6180    0.0000 N   0  0  0  0  0  0  0  0  0  0  0  0
    8.5648   -2.0305    0.0000 C   0  0  0  0  0  0  0  0  0  0  0  0
    9.2792   -1.6180    0.0000 C   0  0  0  0  0  0  0  0  0  0  0  0
    9.9937   -2.0305    0.0000 S   0  0  0  0  0  0  0  0  0  0  0  0
   10.7082   -2.4430    0.0000 O   0  0  0  0  0  0  0  0  0  0  0  0
   10.4062   -1.3160    0.0000 O   0  0  0  0  0  0  0  0  0  0  0  0
    9.5812   -2.7450    0.0000 O   0  0  0  0  0  0  0  0  0  0  0  0
    4.2780   -2.0305    0.0000 C   0  0  0  0  0  0  0  0  0  0  0  0
    4.1917   -2.8510    0.0000 C   0  0  0  0  0  0  0  0  0  0  0  0
    3.3847   -3.0225    0.0000 C   0  0  0  0  0  0  0  0  0  0  0  0
    2.9722   -2.3080    0.0000 C   0  0  0  0  0  0  0  0  0  0  0  0
    2.1653   -2.1365    0.0000 C   0  0  0  0  0  0  0  0  0  0  0  0
    1.6132   -2.7496    0.0000 C   0  0  0  0  0  0  0  0  0  0  0  0
    1.8682   -3.5342    0.0000 O   0  0  0  0  0  0  0  0  0  0  0  0
    0.8063   -2.5781    0.0000 C   0  0  0  0  0  0  0  0  0  0  0  0
    0.5513   -1.7935    0.0000 C   0  0  0  0  0  0  0  0  0  0  0  0
   -0.2556   -1.6219    0.0000 C   0  0  0  0  0  0  0  0  0  0  0  0
   -0.5106   -0.8373    0.0000 C   0  0  0  0  0  0  0  0  0  0  0  0
   -1.3176   -0.6658    0.0000 O   0  0  0  0  0  0  0  0  0  0  0  0
    0.0414   -0.2242    0.0000 C   0  0  0  0  0  0  0  0  0  0  0  0
    0.8484   -0.3957    0.0000 C   0  0  0  0  0  0  0  0  0  0  0  0
    1.1034   -1.1804    0.0000 C   0  0  0  0  0  0  0  0  0  0  0  0
    1.6554   -0.5673    0.0000 C   0  0  0  0  0  0  0  0  0  0  0  0
    1.9103   -1.3519    0.0000 C   0  0  0  0  0  0  0  0  0  0  0  0
    2.4624   -0.7388    0.0000 C   0  0  0  0  0  0  0  0  0  0  0  0
    3.2693   -0.9103    0.0000 C   0  0  0  0  0  0  0  0  0  0  0  0
    3.5243   -1.6949    0.0000 C   0  0  0  0  0  0  0  0  0  0  0  0
    4.1374   -1.1429    0.0000 C   0  0  0  0  0  0  0  0  0  0  0  0
  2  1  1  6
  2  3  1  0
  3  4  1  0
  4  5  1  0
  5  6  2  0
  5  7  1  0
  7  8  1  0
  8  9  1  0
  9 10  1  0
 10 11  1  0
 10 12  2  0
 10 13  2  0
 14  2  1  0
 14 15  1  1
 15 16  1  0
 17 16  1  1
 18 17  1  0
 18 19  1  6
 19 20  1  1
 19 21  1  0
 22 21  1  6
 22 23  1  0
 24 23  1  0
 24 25  1  6
 24 26  1  0
 26 27  1  0
 28 27  1  0
 28 22  1  0
 28 29  1  1
 30 28  1  0
 18 30  1  0
 30 31  1  1
 31 32  1  0
 33 32  1  0
 33 14  1  0
 17 33  1  0
 33 34  1  1
M  CHG  1  11  -1
M  END
>  <ID>  (16) 
T6993

>  <CAS>  (16) 
35807-85-3

>  <Formula>  (16) 
C26H44NNaO6S

>  <MolWt>  (16) 
521.69

>  <rank>  (16) 
16

>  <final_score>  (16) 
0.0000

>  <max_tc>  (16) 
0.4658

>  <best_match>  (16) 
Obeticholic acid (OCA)

>  <best_target>  (16) 
FXR

>  <physchem_compliance>  (16) 
0.0000

>  <toxic_score>  (16) 
0.8000

$$$$

     RDKit          2D

 35 38  0  0  1  0  0  0  0  0999 V2000
    4.9924   -0.7930    0.0000 C   0  0  0  0  0  0  0  0  0  0  0  0
    4.9924   -1.6180    0.0000 C   0  0  0  0  0  0  0  0  0  0  0  0
    5.7069   -2.0305    0.0000 C   0  0  0  0  0  0  0  0  0  0  0  0
    6.4214   -1.6180    0.0000 C   0  0  0  0  0  0  0  0  0  0  0  0
    7.1358   -2.0305    0.0000 C   0  0  0  0  0  0  0  0  0  0  0  0
    7.1358   -2.8555    0.0000 O   0  0  0  0  0  0  0  0  0  0  0  0
    7.8503   -1.6180    0.0000 N   0  0  0  0  0  0  0  0  0  0  0  0
    8.5648   -2.0305    0.0000 C   0  0  0  0  0  0  0  0  0  0  0  0
    9.2792   -1.6180    0.0000 C   0  0  0  0  0  0  0  0  0  0  0  0
    9.9937   -2.0305    0.0000 S   0  0  0  0  0  0  0  0  0  0  0  0
   10.7082   -2.4430    0.0000 O   0  0  0  0  0  0  0  0  0  0  0  0
   10.4062   -1.3160    0.0000 O   0  0  0  0  0  0  0  0  0  0  0  0
    9.5812   -2.7450    0.0000 O   0  0  0  0  0  0  0  0  0  0  0  0
    4.2780   -2.0305    0.0000 C   0  0  0  0  0  0  0  0  0  0  0  0
    4.1917   -2.8510    0.0000 C   0  0  0  0  0  0  0  0  0  0  0  0
    3.3847   -3.0225    0.0000 C   0  0  0  0  0  0  0  0  0  0  0  0
    2.9722   -2.3080    0.0000 C   0  0  0  0  0  0  0  0  0  0  0  0
    2.1653   -2.1365    0.0000 C   0  0  0  0  0  0  0  0  0  0  0  0
    1.6132   -2.7496    0.0000 C   0  0  0  0  0  0  0  0  0  0  0  0
    1.8682   -3.5342    0.0000 O   0  0  0  0  0  0  0  0  0  0  0  0
    0.8063   -2.5781    0.0000 C   0  0  0  0  0  0  0  0  0  0  0  0
    0.5513   -1.7935    0.0000 C   0  0  0  0  0  0  0  0  0  0  0  0
   -0.2556   -1.6219    0.0000 C   0  0  0  0  0  0  0  0  0  0  0  0
   -0.5106   -0.8373    0.0000 C   0  0  0  0  0  0  0  0  0  0  0  0
   -1.3176   -0.6658    0.0000 O   0  0  0  0  0  0  0  0  0  0  0  0
    0.0414   -0.2242    0.0000 C   0  0  0  0  0  0  0  0  0  0  0  0
    0.8484   -0.3957    0.0000 C   0  0  0  0  0  0  0  0  0  0  0  0
    1.1034   -1.1804    0.0000 C   0  0  0  0  0  0  0  0  0  0  0  0
    1.6554   -0.5673    0.0000 C   0  0  0  0  0  0  0  0  0  0  0  0
    1.9103   -1.3519    0.0000 C   0  0  0  0  0  0  0  0  0  0  0  0
    2.4624   -0.7388    0.0000 C   0  0  0  0  0  0  0  0  0  0  0  0
    3.2693   -0.9103    0.0000 C   0  0  0  0  0  0  0  0  0  0  0  0
    3.8214   -0.2972    0.0000 O   0  0  0  0  0  0  0  0  0  0  0  0
    3.5243   -1.6949    0.0000 C   0  0  0  0  0  0  0  0  0  0  0  0
    4.1374   -1.1429    0.0000 C   0  0  0  0  0  0  0  0  0  0  0  0
  2  1  1  6
  2  3  1  0
  3  4  1  0
  4  5  1  0
  5  6  2  0
  5  7  1  0
  7  8  1  0
  8  9  1  0
  9 10  1  0
 10 11  1  0
 10 12  2  0
 10 13  2  0
 14  2  1  0
 14 15  1  1
 15 16  1  0
 17 16  1  1
 18 17  1  0
 18 19  1  6
 19 20  1  6
 19 21  1  0
 21 22  1  0
 22 23  1  0
 24 23  1  0
 24 25  1  6
 24 26  1  0
 26 27  1  0
 28 27  1  0
 28 22  1  0
 28 29  1  1
 30 28  1  0
 18 30  1  0
 30 31  1  1
 32 31  1  0
 32 33  1  6
 34 32  1  0
 34 14  1  0
 17 34  1  0
 34 35  1  1
M  CHG  1  11  -1
M  END
>  <ID>  (17) 
TWA2417

>  <CAS>  (17) 
145-42-6

>  <Formula>  (17) 
C26H44NO7S.Na

>  <MolWt>  (17) 
537.69

>  <rank>  (17) 
17

>  <final_score>  (17) 
0.0000

>  <max_tc>  (17) 
0.5432

>  <best_match>  (17) 
Aramchol

>  <best_target>  (17) 
SCD1

>  <physchem_compliance>  (17) 
0.0000

>  <toxic_score>  (17) 
0.8000

$$$$

     RDKit          2D

 37 40  0  0  1  0  0  0  0  0999 V2000
    4.2348   -2.0294    0.0000 H   0  0  0  0  0  0  0  0  0  0  0  0
    4.2780   -1.2055    0.0000 C   0  0  0  0  0  0  0  0  0  0  0  0
    3.5243   -1.5411    0.0000 C   0  0  0  0  0  0  0  0  0  0  0  0
    2.9722   -0.9280    0.0000 C   0  0  0  0  0  0  0  0  0  0  0  0
    3.3847   -0.2135    0.0000 C   0  0  0  0  0  0  0  0  0  0  0  0
    3.9368    0.3996    0.0000 H   0  0  0  0  0  0  0  0  0  0  0  0
    3.1298    0.5711    0.0000 C   0  0  0  0  0  0  0  0  0  0  0  0
    2.5778   -0.0420    0.0000 H   0  0  0  0  0  0  0  0  0  0  0  0
    2.3228    0.7427    0.0000 C   0  0  0  0  0  0  0  0  0  0  0  0
    1.7708    0.1296    0.0000 O   0  0  0  0  0  0  0  0  0  0  0  0
    2.0679    1.5273    0.0000 C   0  0  0  0  0  0  0  0  0  0  0  0
    2.6199    2.1404    0.0000 C   0  0  0  0  0  0  0  0  0  0  0  0
    3.1720    2.7535    0.0000 H   0  0  0  0  0  0  0  0  0  0  0  0
    2.3650    2.9250    0.0000 C   0  0  0  0  0  0  0  0  0  0  0  0
    2.9170    3.5381    0.0000 C   0  0  0  0  0  0  0  0  0  0  0  0
    2.6621    4.3227    0.0000 O   0  0  0  0  0  0  0  0  0  0  0  0
    3.7240    3.3666    0.0000 C   0  0  0  0  0  0  0  0  0  0  0  0
    3.9789    2.5819    0.0000 C   0  0  0  0  0  0  0  0  0  0  0  0
    3.4269    1.9688    0.0000 C   0  0  0  0  0  0  0  0  0  0  0  0
    4.2339    1.7973    0.0000 C   0  0  0  0  0  0  0  0  0  0  0  0
    3.6818    1.1842    0.0000 C   0  0  0  0  0  0  0  0  0  0  0  0
    2.8749    1.3557    0.0000 H   0  0  0  0  0  0  0  0  0  0  0  0
    4.4888    1.0127    0.0000 C   0  0  0  0  0  0  0  0  0  0  0  0
    4.7437    0.2281    0.0000 C   0  0  0  0  0  0  0  0  0  0  0  0
    4.1917   -0.3850    0.0000 C   0  0  0  0  0  0  0  0  0  0  0  0
    4.9763   -0.6400    0.0000 C   0  0  0  0  0  0  0  0  0  0  0  0
    4.9924   -1.6180    0.0000 C   0  0  0  0  0  0  0  0  0  0  0  0
    4.9924   -2.4430    0.0000 C   0  0  0  0  0  0  0  0  0  0  0  0
    5.7069   -1.2055    0.0000 C   0  0  0  0  0  0  0  0  0  0  0  0
    6.4214   -1.6180    0.0000 C   0  0  0  0  0  0  0  0  0  0  0  0
    7.1358   -1.2055    0.0000 C   0  0  0  0  0  0  0  0  0  0  0  0
    7.1358   -0.3805    0.0000 O   0  0  0  0  0  0  0  0  0  0  0  0
    7.8503   -1.6180    0.0000 N   0  0  0  0  0  0  0  0  0  0  0  0
    8.5648   -1.2055    0.0000 C   0  0  0  0  0  0  0  0  0  0  0  0
    9.2792   -1.6180    0.0000 C   0  0  0  0  0  0  0  0  0  0  0  0
    9.9937   -1.2055    0.0000 O   0  0  0  0  0  0  0  0  0  0  0  0
    9.2792   -2.4430    0.0000 O   0  0  0  0  0  0  0  0  0  0  0  0
  2  1  1  6
  2  3  1  0
  3  4  1  0
  5  4  1  0
  5  6  1  6
  7  5  1  0
  7  8  1  1
  7  9  1  0
  9 10  1  6
  9 11  1  0
 12 11  1  0
 12 13  1  1
 12 14  1  0
 15 14  1  0
 15 16  1  6
 15 17  1  0
 17 18  1  0
 19 18  1  0
 19 12  1  0
 19 20  1  1
 21 19  1  0
  7 21  1  0
 21 22  1  6
 21 23  1  0
 23 24  1  0
 25 24  1  0
 25  2  1  0
  5 25  1  0
 25 26  1  1
  2 27  1  0
 27 28  1  1
 27 29  1  0
 29 30  1  0
 30 31  1  0
 31 32  2  0
 31 33  1  0
 33 34  1  0
 34 35  1  0
 35 36  1  0
 35 37  2  0
M  END
>  <ID>  (18) 
T4588

>  <CAS>  (18) 
640-79-9

>  <Formula>  (18) 
C26H43NO5

>  <MolWt>  (18) 
449.62

>  <rank>  (18) 
18

>  <final_score>  (18) 
0.0000

>  <max_tc>  (18) 
0.3377

>  <best_match>  (18) 
Obeticholic acid (OCA)

>  <best_target>  (18) 
FXR

>  <physchem_compliance>  (18) 
0.0000

>  <toxic_score>  (18) 
0.8000

$$$$

     RDKit          2D

 34 37  0  0  1  0  0  0  0  0999 V2000
    4.9924   -0.7930    0.0000 C   0  0  0  0  0  0  0  0  0  0  0  0
    4.9924   -1.6180    0.0000 C   0  0  0  0  0  0  0  0  0  0  0  0
    5.7069   -2.0305    0.0000 C   0  0  0  0  0  0  0  0  0  0  0  0
    6.4214   -1.6180    0.0000 C   0  0  0  0  0  0  0  0  0  0  0  0
    7.1358   -2.0305    0.0000 C   0  0  0  0  0  0  0  0  0  0  0  0
    7.1358   -2.8555    0.0000 O   0  0  0  0  0  0  0  0  0  0  0  0
    7.8503   -1.6180    0.0000 N   0  0  0  0  0  0  0  0  0  0  0  0
    8.5648   -2.0305    0.0000 C   0  0  0  0  0  0  0  0  0  0  0  0
    9.2792   -1.6180    0.0000 C   0  0  0  0  0  0  0  0  0  0  0  0
    9.9937   -2.0305    0.0000 S   0  0  0  0  0  0  0  0  0  0  0  0
   10.7082   -2.4430    0.0000 O   0  0  0  0  0  0  0  0  0  0  0  0
   10.4062   -1.3160    0.0000 O   0  0  0  0  0  0  0  0  0  0  0  0
    9.5812   -2.7450    0.0000 O   0  0  0  0  0  0  0  0  0  0  0  0
    4.2780   -2.0305    0.0000 C   0  0  0  0  0  0  0  0  0  0  0  0
    4.1917   -2.8510    0.0000 C   0  0  0  0  0  0  0  0  0  0  0  0
    3.3847   -3.0225    0.0000 C   0  0  0  0  0  0  0  0  0  0  0  0
    2.9722   -2.3080    0.0000 C   0  0  0  0  0  0  0  0  0  0  0  0
    2.1653   -2.1365    0.0000 C   0  0  0  0  0  0  0  0  0  0  0  0
    1.6132   -2.7496    0.0000 C   0  0  0  0  0  0  0  0  0  0  0  0
    1.8682   -3.5342    0.0000 O   0  0  0  0  0  0  0  0  0  0  0  0
    0.8063   -2.5781    0.0000 C   0  0  0  0  0  0  0  0  0  0  0  0
    0.5513   -1.7935    0.0000 C   0  0  0  0  0  0  0  0  0  0  0  0
   -0.2556   -1.6219    0.0000 C   0  0  0  0  0  0  0  0  0  0  0  0
   -0.5106   -0.8373    0.0000 C   0  0  0  0  0  0  0  0  0  0  0  0
   -1.3176   -0.6658    0.0000 O   0  0  0  0  0  0  0  0  0  0  0  0
    0.0414   -0.2242    0.0000 C   0  0  0  0  0  0  0  0  0  0  0  0
    0.8484   -0.3957    0.0000 C   0  0  0  0  0  0  0  0  0  0  0  0
    1.1034   -1.1804    0.0000 C   0  0  0  0  0  0  0  0  0  0  0  0
    1.6554   -0.5673    0.0000 C   0  0  0  0  0  0  0  0  0  0  0  0
    1.9103   -1.3519    0.0000 C   0  0  0  0  0  0  0  0  0  0  0  0
    2.4624   -0.7388    0.0000 C   0  0  0  0  0  0  0  0  0  0  0  0
    3.2693   -0.9103    0.0000 C   0  0  0  0  0  0  0  0  0  0  0  0
    3.5243   -1.6949    0.0000 C   0  0  0  0  0  0  0  0  0  0  0  0
    4.1374   -1.1429    0.0000 C   0  0  0  0  0  0  0  0  0  0  0  0
  2  1  1  6
  2  3  1  0
  3  4  1  0
  4  5  1  0
  5  6  2  0
  5  7  1  0
  7  8  1  0
  8  9  1  0
  9 10  1  0
 10 11  1  0
 10 12  2  0
 10 13  2  0
 14  2  1  0
 14 15  1  1
 15 16  1  0
 17 16  1  1
 18 17  1  0
 18 19  1  6
 19 20  1  6
 19 21  1  0
 22 21  1  6
 22 23  1  0
 24 23  1  0
 24 25  1  6
 24 26  1  0
 26 27  1  0
 28 27  1  0
 28 22  1  0
 28 29  1  1
 30 28  1  0
 18 30  1  0
 30 31  1  1
 31 32  1  0
 33 32  1  0
 33 14  1  0
 17 33  1  0
 33 34  1  1
M  END
>  <ID>  (19) 
T2A2481

>  <CAS>  (19) 
516-35-8

>  <Formula>  (19) 
C26H45NO6S

>  <MolWt>  (19) 
499.7

>  <rank>  (19) 
19

>  <final_score>  (19) 
0.0000

>  <max_tc>  (19) 
0.4722

>  <best_match>  (19) 
Obeticholic acid (OCA)

>  <best_target>  (19) 
FXR

>  <physchem_compliance>  (19) 
0.0000

>  <toxic_score>  (19) 
0.8000

$$$$

     RDKit          2D

 33 36  0  0  1  0  0  0  0  0999 V2000
    4.9924   -0.7930    0.0000 C   0  0  0  0  0  0  0  0  0  0  0  0
    4.9924   -1.6180    0.0000 C   0  0  0  0  0  0  0  0  0  0  0  0
    5.7069   -2.0305    0.0000 C   0  0  0  0  0  0  0  0  0  0  0  0
    6.4214   -1.6180    0.0000 C   0  0  0  0  0  0  0  0  0  0  0  0
    7.1358   -2.0305    0.0000 C   0  0  0  0  0  0  0  0  0  0  0  0
    7.1358   -2.8555    0.0000 O   0  0  0  0  0  0  0  0  0  0  0  0
    7.8503   -1.6180    0.0000 N   0  0  0  0  0  0  0  0  0  0  0  0
    8.5648   -2.0305    0.0000 C   0  0  0  0  0  0  0  0  0  0  0  0
    9.2792   -1.6180    0.0000 C   0  0  0  0  0  0  0  0  0  0  0  0
    9.9937   -2.0305    0.0000 S   0  0  0  0  0  0  0  0  0  0  0  0
   10.7082   -2.4430    0.0000 O   0  0  0  0  0  0  0  0  0  0  0  0
   10.4062   -1.3160    0.0000 O   0  0  0  0  0  0  0  0  0  0  0  0
    9.5812   -2.7450    0.0000 O   0  0  0  0  0  0  0  0  0  0  0  0
    4.2780   -2.0305    0.0000 C   0  0  0  0  0  0  0  0  0  0  0  0
    4.1917   -2.8510    0.0000 C   0  0  0  0  0  0  0  0  0  0  0  0
    3.3847   -3.0225    0.0000 C   0  0  0  0  0  0  0  0  0  0  0  0
    2.9722   -2.3080    0.0000 C   0  0  0  0  0  0  0  0  0  0  0  0
    2.1653   -2.1365    0.0000 C   0  0  0  0  0  0  0  0  0  0  0  0
    1.6132   -2.7496    0.0000 C   0  0  0  0  0  0  0  0  0  0  0  0
    0.8063   -2.5781    0.0000 C   0  0  0  0  0  0  0  0  0  0  0  0
    0.5513   -1.7935    0.0000 C   0  0  0  0  0  0  0  0  0  0  0  0
   -0.2556   -1.6219    0.0000 C   0  0  0  0  0  0  0  0  0  0  0  0
   -0.5106   -0.8373    0.0000 C   0  0  0  0  0  0  0  0  0  0  0  0
   -1.3176   -0.6658    0.0000 O   0  0  0  0  0  0  0  0  0  0  0  0
    0.0414   -0.2242    0.0000 C   0  0  0  0  0  0  0  0  0  0  0  0
    0.8484   -0.3957    0.0000 C   0  0  0  0  0  0  0  0  0  0  0  0
    1.1034   -1.1804    0.0000 C   0  0  0  0  0  0  0  0  0  0  0  0
    1.6554   -0.5673    0.0000 C   0  0  0  0  0  0  0  0  0  0  0  0
    1.9103   -1.3519    0.0000 C   0  0  0  0  0  0  0  0  0  0  0  0
    2.4624   -0.7388    0.0000 C   0  0  0  0  0  0  0  0  0  0  0  0
    3.2693   -0.9103    0.0000 C   0  0  0  0  0  0  0  0  0  0  0  0
    3.5243   -1.6949    0.0000 C   0  0  0  0  0  0  0  0  0  0  0  0
    4.1374   -1.1429    0.0000 C   0  0  0  0  0  0  0  0  0  0  0  0
  2  1  1  6
  2  3  1  0
  3  4  1  0
  4  5  1  0
  5  6  2  0
  5  7  1  0
  7  8  1  0
  8  9  1  0
  9 10  1  0
 10 11  1  0
 10 12  2  0
 10 13  2  0
 14  2  1  0
 14 15  1  1
 15 16  1  0
 17 16  1  1
 17 18  1  0
 18 19  1  6
 19 20  1  0
 21 20  1  6
 21 22  1  0
 23 22  1  0
 23 24  1  6
 23 25  1  0
 25 26  1  0
 27 26  1  0
 27 21  1  0
 27 28  1  1
 29 27  1  0
 18 29  1  0
 29 30  1  1
 30 31  1  0
 32 31  1  0
 14 32  1  0
 32 17  1  0
 32 33  1  1
M  CHG  1  11  -1
M  END
>  <ID>  (20) 
T4727

>  <CAS>  (20) 
6042-32-6

>  <Formula>  (20) 
C26H44NNaO5S

>  <MolWt>  (20) 
505.69

>  <rank>  (20) 
20

>  <final_score>  (20) 
0.0000

>  <max_tc>  (20) 
0.4324

>  <best_match>  (20) 
Obeticholic acid (OCA)

>  <best_target>  (20) 
FXR

>  <physchem_compliance>  (20) 
0.0000

>  <toxic_score>  (20) 
0.8000

$$$$

     RDKit          2D

 33 36  0  0  1  0  0  0  0  0999 V2000
    8.1957    0.8333    0.0000 C   0  0  0  0  0  0  0  0  0  0  0  0
    8.1957    0.0083    0.0000 C   0  0  0  0  0  0  0  0  0  0  0  0
    8.9102   -0.4042    0.0000 C   0  0  0  0  0  0  0  0  0  0  0  0
    9.6246    0.0083    0.0000 C   0  0  0  0  0  0  0  0  0  0  0  0
   10.3391   -0.4042    0.0000 C   0  0  0  0  0  0  0  0  0  0  0  0
   10.3391   -1.2292    0.0000 O   0  0  0  0  0  0  0  0  0  0  0  0
   11.0536    0.0083    0.0000 N   0  0  0  0  0  0  0  0  0  0  0  0
   11.7680   -0.4042    0.0000 C   0  0  0  0  0  0  0  0  0  0  0  0
   12.4825    0.0083    0.0000 C   0  0  0  0  0  0  0  0  0  0  0  0
   13.1970   -0.4042    0.0000 O   0  0  0  0  0  0  0  0  0  0  0  0
   12.4825    0.8333    0.0000 O   0  0  0  0  0  0  0  0  0  0  0  0
    7.4812   -0.4042    0.0000 C   0  0  0  0  0  0  0  0  0  0  0  0
    7.3950   -1.2247    0.0000 C   0  0  0  0  0  0  0  0  0  0  0  0
    6.5880   -1.3962    0.0000 C   0  0  0  0  0  0  0  0  0  0  0  0
    6.1755   -0.6817    0.0000 C   0  0  0  0  0  0  0  0  0  0  0  0
    5.3685   -0.5102    0.0000 C   0  0  0  0  0  0  0  0  0  0  0  0
    4.8165   -1.1233    0.0000 C   0  0  0  0  0  0  0  0  0  0  0  0
    5.0714   -1.9079    0.0000 O   0  0  0  0  0  0  0  0  0  0  0  0
    4.0095   -0.9518    0.0000 C   0  0  0  0  0  0  0  0  0  0  0  0
    3.7546   -0.1672    0.0000 C   0  0  0  0  0  0  0  0  0  0  0  0
    2.9476    0.0044    0.0000 C   0  0  0  0  0  0  0  0  0  0  0  0
    2.6927    0.7890    0.0000 C   0  0  0  0  0  0  0  0  0  0  0  0
    1.8857    0.9605    0.0000 O   0  0  0  0  0  0  0  0  0  0  0  0
    3.2447    1.4021    0.0000 C   0  0  0  0  0  0  0  0  0  0  0  0
    4.0517    1.2306    0.0000 C   0  0  0  0  0  0  0  0  0  0  0  0
    4.3066    0.4459    0.0000 C   0  0  0  0  0  0  0  0  0  0  0  0
    4.8587    1.0590    0.0000 C   0  0  0  0  0  0  0  0  0  0  0  0
    5.1136    0.2744    0.0000 C   0  0  0  0  0  0  0  0  0  0  0  0
    5.6656    0.8875    0.0000 C   0  0  0  0  0  0  0  0  0  0  0  0
    6.4726    0.7160    0.0000 C   0  0  0  0  0  0  0  0  0  0  0  0
    7.0246    1.3291    0.0000 O   0  0  0  0  0  0  0  0  0  0  0  0
    6.7275   -0.0686    0.0000 C   0  0  0  0  0  0  0  0  0  0  0  0
    7.3406    0.4834    0.0000 C   0  0  0  0  0  0  0  0  0  0  0  0
  2  1  1  6
  2  3  1  0
  3  4  1  0
  4  5  1  0
  5  6  2  0
  5  7  1  0
  7  8  1  0
  8  9  1  0
  9 10  1  0
  9 11  2  0
 12  2  1  0
 12 13  1  1
 13 14  1  0
 15 14  1  1
 16 15  1  0
 16 17  1  6
 17 18  1  6
 17 19  1  0
 20 19  1  6
 20 21  1  0
 22 21  1  0
 22 23  1  6
 22 24  1  0
 24 25  1  0
 26 25  1  0
 26 20  1  0
 26 27  1  1
 28 26  1  0
 16 28  1  0
 28 29  1  1
 30 29  1  0
 30 31  1  6
 32 30  1  0
 32 12  1  0
 15 32  1  0
 32 33  1  1
M  END
>  <ID>  (21) 
T5072

>  <CAS>  (21) 
1192657-83-2

>  <Formula>  (21) 
C26H45NO7

>  <MolWt>  (21) 
483.63

>  <rank>  (21) 
21

>  <final_score>  (21) 
0.0000

>  <max_tc>  (21) 
0.6216

>  <best_match>  (21) 
Aramchol

>  <best_target>  (21) 
SCD1

>  <physchem_compliance>  (21) 
0.0000

>  <toxic_score>  (21) 
0.8000

$$$$

     RDKit          2D

 28 31  0  0  1  0  0  0  0  0999 V2000
    4.9924   -0.7930    0.0000 C   0  0  0  0  0  0  0  0  0  0  0  0
    4.9924   -1.6180    0.0000 C   0  0  0  0  0  0  0  0  0  0  0  0
    5.7069   -2.0305    0.0000 C   0  0  0  0  0  0  0  0  0  0  0  0
    6.4214   -1.6180    0.0000 C   0  0  0  0  0  0  0  0  0  0  0  0
    7.1358   -2.0305    0.0000 C   0  0  0  0  0  0  0  0  0  0  0  0
    7.8503   -1.6180    0.0000 O   0  0  0  0  0  0  0  0  0  0  0  0
    7.1358   -2.8555    0.0000 O   0  0  0  0  0  0  0  0  0  0  0  0
    4.2780   -2.0305    0.0000 C   0  0  0  0  0  0  0  0  0  0  0  0
    4.1917   -2.8510    0.0000 C   0  0  0  0  0  0  0  0  0  0  0  0
    3.3847   -3.0225    0.0000 C   0  0  0  0  0  0  0  0  0  0  0  0
    2.9722   -2.3080    0.0000 C   0  0  0  0  0  0  0  0  0  0  0  0
    2.1653   -2.1365    0.0000 C   0  0  0  0  0  0  0  0  0  0  0  0
    1.6132   -2.7496    0.0000 C   0  0  0  0  0  0  0  0  0  0  0  0
    0.8063   -2.5781    0.0000 C   0  0  0  0  0  0  0  0  0  0  0  0
    0.5513   -1.7935    0.0000 C   0  0  0  0  0  0  0  0  0  0  0  0
   -0.2556   -1.6219    0.0000 C   0  0  0  0  0  0  0  0  0  0  0  0
   -0.5106   -0.8373    0.0000 C   0  0  0  0  0  0  0  0  0  0  0  0
   -1.3176   -0.6658    0.0000 O   0  0  0  0  0  0  0  0  0  0  0  0
    0.0414   -0.2242    0.0000 C   0  0  0  0  0  0  0  0  0  0  0  0
    0.8484   -0.3957    0.0000 C   0  0  0  0  0  0  0  0  0  0  0  0
    1.1034   -1.1804    0.0000 C   0  0  0  0  0  0  0  0  0  0  0  0
    1.6554   -0.5673    0.0000 C   0  0  0  0  0  0  0  0  0  0  0  0
    1.9103   -1.3519    0.0000 C   0  0  0  0  0  0  0  0  0  0  0  0
    2.4624   -0.7388    0.0000 C   0  0  0  0  0  0  0  0  0  0  0  0
    3.2693   -0.9103    0.0000 C   0  0  0  0  0  0  0  0  0  0  0  0
    3.8214   -0.2972    0.0000 O   0  0  0  0  0  0  0  0  0  0  0  0
    3.5243   -1.6949    0.0000 C   0  0  0  0  0  0  0  0  0  0  0  0
    4.1374   -1.1429    0.0000 C   0  0  0  0  0  0  0  0  0  0  0  0
  2  1  1  6
  2  3  1  0
  3  4  1  0
  4  5  1  0
  5  6  1  0
  5  7  2  0
  8  2  1  0
  8  9  1  1
  9 10  1  0
 11 10  1  1
 11 12  1  0
 12 13  1  6
 13 14  1  0
 15 14  1  6
 15 16  1  0
 17 16  1  0
 17 18  1  6
 17 19  1  0
 19 20  1  0
 21 20  1  0
 21 15  1  0
 21 22  1  1
 23 21  1  0
 12 23  1  0
 23 24  1  1
 25 24  1  0
 25 26  1  6
 27 25  1  0
 27  8  1  0
 27 11  1  0
 27 28  1  1
M  CHG  1   6  -1
M  END
>  <ID>  (22) 
T5077

>  <CAS>  (22) 
302-95-4

>  <Formula>  (22) 
C24H39NaO4

>  <MolWt>  (22) 
414.56

>  <rank>  (22) 
22

>  <final_score>  (22) 
0.0000

>  <max_tc>  (22) 
0.4304

>  <best_match>  (22) 
Aramchol

>  <best_target>  (22) 
SCD1

>  <physchem_compliance>  (22) 
0.0000

>  <toxic_score>  (22) 
0.8000

$$$$

     RDKit          2D

 32 35  0  0  1  0  0  0  0  0999 V2000
    4.9924   -0.7930    0.0000 C   0  0  0  0  0  0  0  0  0  0  0  0
    4.9924   -1.6180    0.0000 C   0  0  0  0  0  0  0  0  0  0  0  0
    5.7069   -2.0305    0.0000 C   0  0  0  0  0  0  0  0  0  0  0  0
    6.4214   -1.6180    0.0000 C   0  0  0  0  0  0  0  0  0  0  0  0
    7.1358   -2.0305    0.0000 C   0  0  0  0  0  0  0  0  0  0  0  0
    7.1358   -2.8555    0.0000 O   0  0  0  0  0  0  0  0  0  0  0  0
    7.8503   -1.6180    0.0000 N   0  0  0  0  0  0  0  0  0  0  0  0
    8.5648   -2.0305    0.0000 C   0  0  0  0  0  0  0  0  0  0  0  0
    9.2792   -1.6180    0.0000 C   0  0  0  0  0  0  0  0  0  0  0  0
    9.9937   -2.0305    0.0000 O   0  0  0  0  0  0  0  0  0  0  0  0
    9.2792   -0.7930    0.0000 O   0  0  0  0  0  0  0  0  0  0  0  0
    4.2780   -2.0305    0.0000 C   0  0  0  0  0  0  0  0  0  0  0  0
    4.1917   -2.8510    0.0000 C   0  0  0  0  0  0  0  0  0  0  0  0
    3.3847   -3.0225    0.0000 C   0  0  0  0  0  0  0  0  0  0  0  0
    2.9722   -2.3080    0.0000 C   0  0  0  0  0  0  0  0  0  0  0  0
    2.1653   -2.1365    0.0000 C   0  0  0  0  0  0  0  0  0  0  0  0
    1.6132   -2.7496    0.0000 C   0  0  0  0  0  0  0  0  0  0  0  0
    1.8682   -3.5342    0.0000 O   0  0  0  0  0  0  0  0  0  0  0  0
    0.8063   -2.5781    0.0000 C   0  0  0  0  0  0  0  0  0  0  0  0
    0.5513   -1.7935    0.0000 C   0  0  0  0  0  0  0  0  0  0  0  0
   -0.2556   -1.6219    0.0000 C   0  0  0  0  0  0  0  0  0  0  0  0
   -0.5106   -0.8373    0.0000 C   0  0  0  0  0  0  0  0  0  0  0  0
   -1.3176   -0.6658    0.0000 O   0  0  0  0  0  0  0  0  0  0  0  0
    0.0414   -0.2242    0.0000 C   0  0  0  0  0  0  0  0  0  0  0  0
    0.8484   -0.3957    0.0000 C   0  0  0  0  0  0  0  0  0  0  0  0
    1.1034   -1.1804    0.0000 C   0  0  0  0  0  0  0  0  0  0  0  0
    1.6554   -0.5673    0.0000 C   0  0  0  0  0  0  0  0  0  0  0  0
    1.9103   -1.3519    0.0000 C   0  0  0  0  0  0  0  0  0  0  0  0
    2.4624   -0.7388    0.0000 C   0  0  0  0  0  0  0  0  0  0  0  0
    3.2693   -0.9103    0.0000 C   0  0  0  0  0  0  0  0  0  0  0  0
    3.5243   -1.6949    0.0000 C   0  0  0  0  0  0  0  0  0  0  0  0
    4.1374   -1.1429    0.0000 C   0  0  0  0  0  0  0  0  0  0  0  0
  2  1  1  6
  2  3  1  0
  3  4  1  0
  4  5  1  0
  5  6  2  0
  5  7  1  0
  7  8  1  0
  8  9  1  0
  9 10  1  0
  9 11  2  0
 12  2  1  0
 12 13  1  1
 13 14  1  0
 15 14  1  1
 16 15  1  0
 16 17  1  6
 17 18  1  1
 17 19  1  0
 20 19  1  6
 20 21  1  0
 22 21  1  0
 22 23  1  6
 22 24  1  0
 24 25  1  0
 26 25  1  0
 26 20  1  0
 26 27  1  1
 28 26  1  0
 16 28  1  0
 28 29  1  1
 29 30  1  0
 31 30  1  0
 31 12  1  0
 15 31  1  0
 31 32  1  1
M  END
>  <ID>  (23) 
T5234

>  <CAS>  (23) 
64480-66-6

>  <Formula>  (23) 
C26H43NO5

>  <MolWt>  (23) 
449.62

>  <rank>  (23) 
23

>  <final_score>  (23) 
0.0000

>  <max_tc>  (23) 
0.5455

>  <best_match>  (23) 
Obeticholic acid (OCA)

>  <best_target>  (23) 
FXR

>  <physchem_compliance>  (23) 
0.0000

>  <toxic_score>  (23) 
0.8000

$$$$

     RDKit          2D

 32 35  0  0  1  0  0  0  0  0999 V2000
    4.8300   -0.9936    0.0000 C   0  0  0  0  0  0  0  0  0  0  0  0
    4.8300   -1.8186    0.0000 C   0  0  0  0  0  0  0  0  0  0  0  0
    5.5445   -2.2311    0.0000 C   0  0  0  0  0  0  0  0  0  0  0  0
    6.2589   -1.8186    0.0000 C   0  0  0  0  0  0  0  0  0  0  0  0
    6.9734   -2.2311    0.0000 C   0  0  0  0  0  0  0  0  0  0  0  0
    6.9734   -3.0561    0.0000 O   0  0  0  0  0  0  0  0  0  0  0  0
    7.6879   -1.8186    0.0000 N   0  0  0  0  0  0  0  0  0  0  0  0
    8.4023   -2.2311    0.0000 C   0  0  0  0  0  0  0  0  0  0  0  0
    9.1168   -1.8186    0.0000 C   0  0  0  0  0  0  0  0  0  0  0  0
    9.8313   -2.2311    0.0000 O   0  0  0  0  0  0  0  0  0  0  0  0
    9.1168   -0.9936    0.0000 O   0  0  0  0  0  0  0  0  0  0  0  0
    4.1155   -2.2311    0.0000 C   0  0  0  0  0  0  0  0  0  0  0  0
    4.0293   -3.0516    0.0000 C   0  0  0  0  0  0  0  0  0  0  0  0
    3.2223   -3.2231    0.0000 C   0  0  0  0  0  0  0  0  0  0  0  0
    2.8098   -2.5086    0.0000 C   0  0  0  0  0  0  0  0  0  0  0  0
    2.0028   -2.3371    0.0000 C   0  0  0  0  0  0  0  0  0  0  0  0
    1.4508   -2.9502    0.0000 C   0  0  0  0  0  0  0  0  0  0  0  0
    1.7057   -3.7348    0.0000 O   0  0  0  0  0  0  0  0  0  0  0  0
    0.6438   -2.7787    0.0000 C   0  0  0  0  0  0  0  0  0  0  0  0
    0.3889   -1.9941    0.0000 C   0  0  0  0  0  0  0  0  0  0  0  0
   -0.4181   -1.8225    0.0000 C   0  0  0  0  0  0  0  0  0  0  0  0
   -0.6730   -1.0379    0.0000 C   0  0  0  0  0  0  0  0  0  0  0  0
   -1.4800   -0.8664    0.0000 O   0  0  0  0  0  0  0  0  0  0  0  0
   -0.1210   -0.4248    0.0000 C   0  0  0  0  0  0  0  0  0  0  0  0
    0.6860   -0.5963    0.0000 C   0  0  0  0  0  0  0  0  0  0  0  0
    0.9409   -1.3810    0.0000 C   0  0  0  0  0  0  0  0  0  0  0  0
    1.4930   -0.7679    0.0000 C   0  0  0  0  0  0  0  0  0  0  0  0
    1.7479   -1.5525    0.0000 C   0  0  0  0  0  0  0  0  0  0  0  0
    2.2999   -0.9394    0.0000 C   0  0  0  0  0  0  0  0  0  0  0  0
    3.1069   -1.1109    0.0000 C   0  0  0  0  0  0  0  0  0  0  0  0
    3.3618   -1.8955    0.0000 C   0  0  0  0  0  0  0  0  0  0  0  0
    3.9749   -1.3435    0.0000 C   0  0  0  0  0  0  0  0  0  0  0  0
  2  1  1  6
  2  3  1  0
  3  4  1  0
  4  5  1  0
  5  6  2  0
  5  7  1  0
  7  8  1  0
  8  9  1  0
  9 10  1  0
  9 11  2  0
 12  2  1  0
 12 13  1  1
 13 14  1  0
 15 14  1  1
 16 15  1  0
 16 17  1  6
 17 18  1  6
 17 19  1  0
 20 19  1  6
 20 21  1  0
 22 21  1  0
 22 23  1  6
 22 24  1  0
 24 25  1  0
 26 25  1  0
 26 20  1  0
 26 27  1  1
 28 26  1  0
 16 28  1  0
 28 29  1  1
 29 30  1  0
 31 30  1  0
 31 12  1  0
 15 31  1  0
 31 32  1  1
M  CHG  1  10  -1
M  END
>  <ID>  (24) 
T5259

>  <CAS>  (24) 
16564-43-5

>  <Formula>  (24) 
C26H42NNaO5

>  <MolWt>  (24) 
471.61

>  <rank>  (24) 
24

>  <final_score>  (24) 
0.0000

>  <max_tc>  (24) 
0.4928

>  <best_match>  (24) 
Obeticholic acid (OCA)

>  <best_target>  (24) 
FXR

>  <physchem_compliance>  (24) 
0.0000

>  <toxic_score>  (24) 
0.8000

$$$$

     RDKit          2D

 32 35  0  0  1  0  0  0  0  0999 V2000
    4.8300   -0.9936    0.0000 C   0  0  0  0  0  0  0  0  0  0  0  0
    4.8300   -1.8186    0.0000 C   0  0  0  0  0  0  0  0  0  0  0  0
    5.5445   -2.2311    0.0000 C   0  0  0  0  0  0  0  0  0  0  0  0
    6.2589   -1.8186    0.0000 C   0  0  0  0  0  0  0  0  0  0  0  0
    6.9734   -2.2311    0.0000 C   0  0  0  0  0  0  0  0  0  0  0  0
    6.9734   -3.0561    0.0000 O   0  0  0  0  0  0  0  0  0  0  0  0
    7.6879   -1.8186    0.0000 N   0  0  0  0  0  0  0  0  0  0  0  0
    8.4023   -2.2311    0.0000 C   0  0  0  0  0  0  0  0  0  0  0  0
    9.1168   -1.8186    0.0000 C   0  0  0  0  0  0  0  0  0  0  0  0
    9.8313   -2.2311    0.0000 O   0  0  0  0  0  0  0  0  0  0  0  0
    9.1168   -0.9936    0.0000 O   0  0  0  0  0  0  0  0  0  0  0  0
    4.1155   -2.2311    0.0000 C   0  0  0  0  0  0  0  0  0  0  0  0
    4.0293   -3.0516    0.0000 C   0  0  0  0  0  0  0  0  0  0  0  0
    3.2223   -3.2231    0.0000 C   0  0  0  0  0  0  0  0  0  0  0  0
    2.8098   -2.5086    0.0000 C   0  0  0  0  0  0  0  0  0  0  0  0
    2.0028   -2.3371    0.0000 C   0  0  0  0  0  0  0  0  0  0  0  0
    1.4508   -2.9502    0.0000 C   0  0  0  0  0  0  0  0  0  0  0  0
    0.6438   -2.7787    0.0000 C   0  0  0  0  0  0  0  0  0  0  0  0
    0.3889   -1.9941    0.0000 C   0  0  0  0  0  0  0  0  0  0  0  0
   -0.4181   -1.8225    0.0000 C   0  0  0  0  0  0  0  0  0  0  0  0
   -0.6730   -1.0379    0.0000 C   0  0  0  0  0  0  0  0  0  0  0  0
   -1.4800   -0.8664    0.0000 O   0  0  0  0  0  0  0  0  0  0  0  0
   -0.1210   -0.4248    0.0000 C   0  0  0  0  0  0  0  0  0  0  0  0
    0.6860   -0.5963    0.0000 C   0  0  0  0  0  0  0  0  0  0  0  0
    0.9409   -1.3810    0.0000 C   0  0  0  0  0  0  0  0  0  0  0  0
    1.4930   -0.7679    0.0000 C   0  0  0  0  0  0  0  0  0  0  0  0
    1.7479   -1.5525    0.0000 C   0  0  0  0  0  0  0  0  0  0  0  0
    2.2999   -0.9394    0.0000 C   0  0  0  0  0  0  0  0  0  0  0  0
    3.1069   -1.1109    0.0000 C   0  0  0  0  0  0  0  0  0  0  0  0
    3.6589   -0.4978    0.0000 O   0  0  0  0  0  0  0  0  0  0  0  0
    3.3618   -1.8955    0.0000 C   0  0  0  0  0  0  0  0  0  0  0  0
    3.9749   -1.3435    0.0000 C   0  0  0  0  0  0  0  0  0  0  0  0
  2  1  1  6
  2  3  1  0
  3  4  1  0
  4  5  1  0
  5  6  2  0
  5  7  1  0
  7  8  1  0
  8  9  1  0
  9 10  1  0
  9 11  2  0
 12  2  1  0
 12 13  1  1
 13 14  1  0
 15 14  1  1
 15 16  1  0
 16 17  1  6
 17 18  1  0
 19 18  1  6
 19 20  1  0
 21 20  1  0
 21 22  1  6
 21 23  1  0
 23 24  1  0
 25 24  1  0
 25 19  1  0
 25 26  1  1
 27 25  1  0
 16 27  1  0
 27 28  1  1
 29 28  1  0
 29 30  1  6
 31 29  1  0
 31 12  1  0
 31 15  1  0
 31 32  1  1
M  CHG  1  10  -1
M  END
>  <ID>  (25) 
T5254

>  <CAS>  (25) 
16409-34-0

>  <Formula>  (25) 
C26H42NNaO5

>  <MolWt>  (25) 
471.61

>  <rank>  (25) 
25

>  <final_score>  (25) 
0.0000

>  <max_tc>  (25) 
0.4286

>  <best_match>  (25) 
Aramchol

>  <best_target>  (25) 
SCD1

>  <physchem_compliance>  (25) 
0.0000

>  <toxic_score>  (25) 
0.8000

$$$$

     RDKit          2D

 24 25  0  0  0  0  0  0  0  0999 V2000
    1.4289    0.0000    0.0000 C   0  0  0  0  0  0  0  0  0  0  0  0
    2.1434   -0.4125    0.0000 C   0  0  0  0  0  0  0  0  0  0  0  0
    2.8579    0.0000    0.0000 C   0  0  0  0  0  0  0  0  0  0  0  0
    2.1434   -1.2375    0.0000 C   0  0  0  0  0  0  0  0  0  0  0  0
    2.8579   -1.6500    0.0000 C   0  0  0  0  0  0  0  0  0  0  0  0
    2.8579   -2.4750    0.0000 C   0  0  0  0  0  0  0  0  0  0  0  0
    3.5724   -2.8875    0.0000 C   0  0  0  0  0  0  0  0  0  0  0  0
    3.5724   -3.7125    0.0000 C   0  0  0  0  0  0  0  0  0  0  0  0
    4.2868   -4.1250    0.0000 C   0  0  0  0  0  0  0  0  0  0  0  0
    5.0013   -3.7125    0.0000 C   0  0  0  0  0  0  0  0  0  0  0  0
    4.2868   -4.9500    0.0000 C   0  0  0  0  0  0  0  0  0  0  0  0
    3.5724   -5.3625    0.0000 C   0  0  0  0  0  0  0  0  0  0  0  0
    3.5724   -6.1875    0.0000 O   0  0  0  0  0  0  0  0  0  0  0  0
    4.2868   -6.6000    0.0000 C   0  0  0  0  0  0  0  0  0  0  0  0
    4.2868   -7.4250    0.0000 C   0  0  0  0  0  0  0  0  0  0  0  0
    5.0013   -7.8375    0.0000 O   0  0  0  0  0  0  0  0  0  0  0  0
    3.5724   -7.8375    0.0000 O   0  0  0  0  0  0  0  0  0  0  0  0
    2.8579   -4.9500    0.0000 C   0  0  0  0  0  0  0  0  0  0  0  0
    2.8579   -4.1250    0.0000 C   0  0  0  0  0  0  0  0  0  0  0  0
    2.1434   -3.7125    0.0000 C   0  0  0  0  0  0  0  0  0  0  0  0
    2.1434   -2.8875    0.0000 C   0  0  0  0  0  0  0  0  0  0  0  0
    1.4289   -2.4750    0.0000 C   0  0  0  0  0  0  0  0  0  0  0  0
    1.4289   -1.6500    0.0000 C   0  0  0  0  0  0  0  0  0  0  0  0
    0.7145   -1.2375    0.0000 O   0  0  0  0  0  0  0  0  0  0  0  0
  1  2  1  0
  2  3  1  0
  2  4  1  0
  4  5  1  0
  5  6  2  0
  6  7  1  0
  7  8  1  0
  8  9  2  0
  9 10  1  0
  9 11  1  0
 11 12  2  0
 12 13  1  0
 13 14  1  0
 14 15  1  0
 15 16  1  0
 15 17  2  0
 12 18  1  0
 18 19  2  0
  8 19  1  0
 19 20  1  0
  6 21  1  0
 21 22  2  0
 22 23  1  0
  4 23  2  0
 23 24  1  0
M  END
>  <ID>  (26) 
T5313

>  <CAS>  (26) 
211110-63-3

>  <Formula>  (26) 
C20H24O4

>  <MolWt>  (26) 
328.4

>  <rank>  (26) 
26

>  <final_score>  (26) 
0.0000

>  <max_tc>  (26) 
0.4722

>  <best_match>  (26) 
VK2809

>  <best_target>  (26) 
THR-beta

>  <physchem_compliance>  (26) 
0.0000

>  <toxic_score>  (26) 
0.8000

$$$$

     RDKit          2D

 35 38  0  0  1  0  0  0  0  0999 V2000
    2.7173   -1.5234    0.0000 H   0  0  0  0  0  0  0  0  0  0  0  0
    2.9722   -2.3080    0.0000 C   0  0  0  0  0  0  0  0  0  0  0  0
    3.3847   -3.0225    0.0000 C   0  0  0  0  0  0  0  0  0  0  0  0
    4.1917   -2.8510    0.0000 C   0  0  0  0  0  0  0  0  0  0  0  0
    4.2780   -2.0305    0.0000 C   0  0  0  0  0  0  0  0  0  0  0  0
    4.9924   -1.6180    0.0000 C   0  0  0  0  0  0  0  0  0  0  0  0
    4.9924   -0.7930    0.0000 C   0  0  0  0  0  0  0  0  0  0  0  0
    5.7069   -2.0305    0.0000 C   0  0  0  0  0  0  0  0  0  0  0  0
    6.4214   -1.6180    0.0000 C   0  0  0  0  0  0  0  0  0  0  0  0
    7.1358   -2.0305    0.0000 C   0  0  0  0  0  0  0  0  0  0  0  0
    7.1358   -2.8555    0.0000 O   0  0  0  0  0  0  0  0  0  0  0  0
    7.8503   -1.6180    0.0000 N   0  0  0  0  0  0  0  0  0  0  0  0
    8.5648   -2.0305    0.0000 C   0  0  0  0  0  0  0  0  0  0  0  0
    9.2792   -1.6180    0.0000 C   0  0  0  0  0  0  0  0  0  0  0  0
    9.9937   -2.0305    0.0000 O   0  0  0  0  0  0  0  0  0  0  0  0
    9.2792   -0.7930    0.0000 O   0  0  0  0  0  0  0  0  0  0  0  0
    3.5243   -1.6949    0.0000 C   0  0  0  0  0  0  0  0  0  0  0  0
    4.1374   -1.1429    0.0000 C   0  0  0  0  0  0  0  0  0  0  0  0
    3.2693   -0.9103    0.0000 C   0  0  0  0  0  0  0  0  0  0  0  0
    3.8214   -0.2972    0.0000 O   0  0  0  0  0  0  0  0  0  0  0  0
    2.4624   -0.7388    0.0000 C   0  0  0  0  0  0  0  0  0  0  0  0
    1.9103   -1.3519    0.0000 C   0  0  0  0  0  0  0  0  0  0  0  0
    1.3583   -1.9650    0.0000 H   0  0  0  0  0  0  0  0  0  0  0  0
    2.1653   -2.1365    0.0000 C   0  0  0  0  0  0  0  0  0  0  0  0
    2.4202   -2.9211    0.0000 H   0  0  0  0  0  0  0  0  0  0  0  0
    1.6132   -2.7496    0.0000 C   0  0  0  0  0  0  0  0  0  0  0  0
    0.8063   -2.5781    0.0000 C   0  0  0  0  0  0  0  0  0  0  0  0
    0.5513   -1.7935    0.0000 C   0  0  0  0  0  0  0  0  0  0  0  0
   -0.2556   -1.6219    0.0000 C   0  0  0  0  0  0  0  0  0  0  0  0
   -0.5106   -0.8373    0.0000 C   0  0  0  0  0  0  0  0  0  0  0  0
   -1.3176   -0.6658    0.0000 O   0  0  0  0  0  0  0  0  0  0  0  0
    0.0414   -0.2242    0.0000 C   0  0  0  0  0  0  0  0  0  0  0  0
    0.8484   -0.3957    0.0000 C   0  0  0  0  0  0  0  0  0  0  0  0
    1.1034   -1.1804    0.0000 C   0  0  0  0  0  0  0  0  0  0  0  0
    1.6554   -0.5673    0.0000 C   0  0  0  0  0  0  0  0  0  0  0  0
  2  1  1  6
  2  3  1  0
  3  4  1  0
  5  4  1  1
  5  6  1  0
  6  7  1  6
  6  8  1  0
  8  9  1  0
  9 10  1  0
 10 11  2  0
 10 12  1  0
 12 13  1  0
 13 14  1  0
 14 15  1  0
 14 16  2  0
 17  5  1  0
 17  2  1  0
 17 18  1  1
 17 19  1  0
 19 20  1  6
 19 21  1  0
 22 21  1  0
 22 23  1  6
 24 22  1  0
  2 24  1  0
 24 25  1  1
 24 26  1  0
 26 27  1  0
 27 28  1  0
 28 29  1  0
 30 29  1  0
 30 31  1  6
 30 32  1  0
 32 33  1  0
 34 33  1  0
 22 34  1  0
 34 28  1  0
 34 35  1  1
M  END
>  <ID>  (27) 
T5352

>  <CAS>  (27) 
360-65-6

>  <Formula>  (27) 
C26H43NO5

>  <MolWt>  (27) 
449.62

>  <rank>  (27) 
27

>  <final_score>  (27) 
0.0000

>  <max_tc>  (27) 
0.3896

>  <best_match>  (27) 
Obeticholic acid (OCA)

>  <best_target>  (27) 
FXR

>  <physchem_compliance>  (27) 
0.0000

>  <toxic_score>  (27) 
0.8000

$$$$

     RDKit          2D

 40 44  0  0  1  0  0  0  0  0999 V2000
    1.4289   -1.6500    0.0000 C   0  0  0  0  0  0  0  0  0  0  0  0
    1.4289   -2.4750    0.0000 O   0  0  0  0  0  0  0  0  0  0  0  0
    0.7145   -2.8875    0.0000 C   0  0  0  0  0  0  0  0  0  0  0  0
    0.7145   -3.7125    0.0000 C   0  0  0  0  0  0  0  0  0  0  0  0
    0.0000   -4.1250    0.0000 C   0  0  0  0  0  0  0  0  0  0  0  0
   -0.7145   -3.7125    0.0000 C   0  0  0  0  0  0  0  0  0  0  0  0
   -0.7145   -2.8875    0.0000 C   0  0  0  0  0  0  0  0  0  0  0  0
    0.0000   -2.4750    0.0000 C   0  0  0  0  0  0  0  0  0  0  0  0
    0.0000   -1.6500    0.0000 C   0  0  0  0  0  0  0  0  0  0  0  0
    0.7145   -1.2375    0.0000 C   0  0  0  0  0  0  0  0  0  0  0  0
    0.7145   -0.4125    0.0000 N   0  0  0  0  0  0  0  0  0  0  0  0
    0.0000    0.0000    0.0000 C   0  0  0  0  0  0  0  0  0  0  0  0
   -0.7846   -0.2549    0.0000 S   0  0  0  0  0  0  0  0  0  0  0  0
   -1.2695    0.4125    0.0000 C   0  0  0  0  0  0  0  0  0  0  0  0
   -2.0945    0.4125    0.0000 C   0  0  0  0  0  0  0  0  0  0  0  0
   -2.5795   -0.2549    0.0000 N   0  0  0  0  0  0  0  0  0  0  0  0
   -3.3641   -0.0000    0.0000 C   0  0  0  0  0  0  0  0  0  0  0  0
   -3.3641    0.8250    0.0000 C   0  0  0  0  0  0  0  0  0  0  0  0
   -2.5795    1.0799    0.0000 O   0  0  0  0  0  0  0  0  0  0  0  0
   -0.7846    1.0799    0.0000 C   0  0  0  0  0  0  0  0  0  0  0  0
   -1.0396    1.8646    0.0000 C   0  0  0  0  0  0  0  0  0  0  0  0
    0.0000    0.8250    0.0000 C   0  0  0  0  0  0  0  0  0  0  0  0
    0.7145    1.2375    0.0000 C   0  0  0  0  0  0  0  0  0  0  0  0
    0.7145    2.0625    0.0000 O   0  0  0  0  0  0  0  0  0  0  0  0
    1.4289    0.8250    0.0000 N   0  0  0  0  0  0  0  0  0  0  0  0
    1.4289    0.0000    0.0000 C   0  0  0  0  0  0  0  0  0  0  0  0
    2.1434   -0.4125    0.0000 O   0  0  0  0  0  0  0  0  0  0  0  0
    2.1434    1.2375    0.0000 C   0  0  0  0  0  0  0  0  0  0  0  0
    1.7309    1.9520    0.0000 C   0  0  0  0  0  0  0  0  0  0  0  0
    2.5559    0.5230    0.0000 C   0  0  0  0  0  0  0  0  0  0  0  0
    2.8579    1.6500    0.0000 C   0  0  0  0  0  0  0  0  0  0  0  0
    2.8579    2.4750    0.0000 O   0  0  0  0  0  0  0  0  0  0  0  0
    3.5724    1.2375    0.0000 O   0  0  0  0  0  0  0  0  0  0  0  0
   -0.7145   -1.2375    0.0000 O   0  0  0  0  0  0  0  0  0  0  0  0
   -1.4289   -1.6500    0.0000 C   0  0  0  0  0  0  0  0  0  0  0  0
   -1.4289   -2.4750    0.0000 C   0  0  0  0  0  0  0  0  0  0  0  0
   -2.1434   -2.8875    0.0000 C   0  0  0  0  0  0  0  0  0  0  0  0
   -2.8579   -2.4750    0.0000 O   0  0  0  0  0  0  0  0  0  0  0  0
   -2.8579   -1.6500    0.0000 C   0  0  0  0  0  0  0  0  0  0  0  0
   -2.1434   -1.2375    0.0000 C   0  0  0  0  0  0  0  0  0  0  0  0
  1  2  1  0
  2  3  1  0
  3  4  2  0
  4  5  1  0
  5  6  2  0
  6  7  1  0
  7  8  2  0
  3  8  1  0
  9  8  1  0
  9 10  1  1
 10 11  1  0
 11 12  1  0
 12 13  1  0
 13 14  1  0
 14 15  1  0
 15 16  2  0
 16 17  1  0
 17 18  2  0
 18 19  1  0
 15 19  1  0
 14 20  2  0
 20 21  1  0
 20 22  1  0
 12 22  2  0
 22 23  1  0
 23 24  2  0
 23 25  1  0
 25 26  1  0
 11 26  1  0
 26 27  2  0
 25 28  1  0
 28 29  1  0
 28 30  1  0
 28 31  1  0
 31 32  1  0
 31 33  2  0
  9 34  1  0
 34 35  1  0
 35 36  1  0
 36 37  1  0
 37 38  1  0
 38 39  1  0
 39 40  1  0
 35 40  1  0
M  END
>  <ID>  (28) 
T7184

>  <CAS>  (28) 
1434635-54-7

>  <Formula>  (28) 
C28H31N3O8S

>  <MolWt>  (28) 
569.63

>  <rank>  (28) 
28

>  <final_score>  (28) 
0.0000

>  <max_tc>  (28) 
1.0000

>  <best_match>  (28) 
Firsocostat (GS-0976)

>  <best_target>  (28) 
ACC

>  <physchem_compliance>  (28) 
0.0000

>  <toxic_score>  (28) 
0.6000

$$$$

     RDKit          2D

 29 32  0  0  1  0  0  0  0  0999 V2000
    2.8728   -3.9050    0.0000 C   0  0  0  0  0  0  0  0  0  0  0  0
    2.5619   -3.1408    0.0000 C   0  0  0  0  0  0  0  0  0  0  0  0
    1.7447   -3.0280    0.0000 C   0  0  0  0  0  0  0  0  0  0  0  0
    1.2383   -3.6793    0.0000 C   0  0  0  0  0  0  0  0  0  0  0  0
    0.4211   -3.5665    0.0000 C   0  0  0  0  0  0  0  0  0  0  0  0
   -0.0853   -4.2178    0.0000 O   0  0  0  0  0  0  0  0  0  0  0  0
    0.1102   -2.8023    0.0000 O   0  0  0  0  0  0  0  0  0  0  0  0
    3.0683   -2.4895    0.0000 C   0  0  0  0  0  0  0  0  0  0  0  0
    2.8390   -1.6970    0.0000 C   0  0  0  0  0  0  0  0  0  0  0  0
    3.5218   -1.2340    0.0000 C   0  0  0  0  0  0  0  0  0  0  0  0
    4.1731   -1.7404    0.0000 C   0  0  0  0  0  0  0  0  0  0  0  0
    4.9853   -1.5952    0.0000 C   0  0  0  0  0  0  0  0  0  0  0  0
    5.2655   -0.8192    0.0000 C   0  0  0  0  0  0  0  0  0  0  0  0
    4.7337   -0.1885    0.0000 O   0  0  0  0  0  0  0  0  0  0  0  0
    6.0777   -0.6740    0.0000 C   0  0  0  0  0  0  0  0  0  0  0  0
    6.6095   -1.3047    0.0000 C   0  0  0  0  0  0  0  0  0  0  0  0
    7.4216   -1.1595    0.0000 C   0  0  0  0  0  0  0  0  0  0  0  0
    7.9534   -1.7902    0.0000 C   0  0  0  0  0  0  0  0  0  0  0  0
    8.7655   -1.6450    0.0000 O   0  0  0  0  0  0  0  0  0  0  0  0
    7.6731   -2.5662    0.0000 C   0  0  0  0  0  0  0  0  0  0  0  0
    6.8610   -2.7114    0.0000 C   0  0  0  0  0  0  0  0  0  0  0  0
    6.3292   -2.0807    0.0000 C   0  0  0  0  0  0  0  0  0  0  0  0
    6.0489   -2.8566    0.0000 C   0  0  0  0  0  0  0  0  0  0  0  0
    5.5171   -2.2259    0.0000 C   0  0  0  0  0  0  0  0  0  0  0  0
    5.2368   -3.0018    0.0000 C   0  0  0  0  0  0  0  0  0  0  0  0
    4.4247   -3.1470    0.0000 C   0  0  0  0  0  0  0  0  0  0  0  0
    4.1444   -3.9229    0.0000 O   0  0  0  0  0  0  0  0  0  0  0  0
    3.8928   -2.5163    0.0000 C   0  0  0  0  0  0  0  0  0  0  0  0
    3.5330   -3.2587    0.0000 C   0  0  0  0  0  0  0  0  0  0  0  0
  2  1  1  6
  2  3  1  0
  3  4  1  0
  4  5  1  0
  5  6  1  0
  5  7  2  0
  8  2  1  0
  8  9  1  1
  9 10  1  0
 11 10  1  1
 12 11  1  0
 12 13  1  6
 13 14  1  1
 13 15  1  0
 16 15  1  6
 16 17  1  0
 18 17  1  0
 18 19  1  6
 18 20  1  0
 20 21  1  0
 22 21  1  0
 22 16  1  0
 22 23  1  1
 24 22  1  0
 12 24  1  0
 24 25  1  1
 26 25  1  0
 26 27  1  6
 28 26  1  0
 28  8  1  0
 11 28  1  0
 28 29  1  1
M  END
>  <ID>  (29) 
T7331

>  <CAS>  (29) 
2955-27-3

>  <Formula>  (29) 
C24H40O5

>  <MolWt>  (29) 
408.57

>  <rank>  (29) 
29

>  <final_score>  (29) 
0.0000

>  <max_tc>  (29) 
0.6866

>  <best_match>  (29) 
Aramchol

>  <best_target>  (29) 
SCD1

>  <physchem_compliance>  (29) 
0.0000

>  <toxic_score>  (29) 
0.8000

$$$$

     RDKit          2D

 28 31  0  0  0  0  0  0  0  0999 V2000
    3.3712    6.8510    0.0000 O   0  0  0  0  0  0  0  0  0  0  0  0
    3.9843    6.2989    0.0000 C   0  0  0  0  0  0  0  0  0  0  0  0
    4.7689    6.5539    0.0000 O   0  0  0  0  0  0  0  0  0  0  0  0
    3.8128    5.4920    0.0000 C   0  0  0  0  0  0  0  0  0  0  0  0
    4.4259    4.9399    0.0000 C   0  0  0  0  0  0  0  0  0  0  0  0
    4.2544    4.1330    0.0000 C   0  0  0  0  0  0  0  0  0  0  0  0
    4.8675    3.5809    0.0000 C   0  0  0  0  0  0  0  0  0  0  0  0
    5.6744    3.7525    0.0000 C   0  0  0  0  0  0  0  0  0  0  0  0
    6.0869    3.0380    0.0000 C   0  0  0  0  0  0  0  0  0  0  0  0
    6.8939    2.8665    0.0000 C   0  0  0  0  0  0  0  0  0  0  0  0
    7.1488    2.0818    0.0000 C   0  0  0  0  0  0  0  0  0  0  0  0
    7.9558    1.9103    0.0000 Cl  0  0  0  0  0  0  0  0  0  0  0  0
    6.5968    1.4687    0.0000 C   0  0  0  0  0  0  0  0  0  0  0  0
    5.7898    1.6403    0.0000 C   0  0  0  0  0  0  0  0  0  0  0  0
    5.5349    2.4249    0.0000 C   0  0  0  0  0  0  0  0  0  0  0  0
    4.7812    2.7604    0.0000 N   0  0  0  0  0  0  0  0  0  0  0  0
    4.0668    2.3479    0.0000 S   0  0  0  0  0  0  0  0  0  0  0  0
    3.6543    3.0624    0.0000 O   0  0  0  0  0  0  0  0  0  0  0  0
    4.4793    1.6335    0.0000 O   0  0  0  0  0  0  0  0  0  0  0  0
    3.3523    1.9354    0.0000 C   0  0  0  0  0  0  0  0  0  0  0  0
    3.3523    1.1104    0.0000 C   0  0  0  0  0  0  0  0  0  0  0  0
    2.6378    0.6979    0.0000 C   0  0  0  0  0  0  0  0  0  0  0  0
    1.9233    1.1104    0.0000 C   0  0  0  0  0  0  0  0  0  0  0  0
    1.1387    0.8555    0.0000 N   0  0  0  0  0  0  0  0  0  0  0  0
    0.6538    1.5229    0.0000 C   0  0  0  0  0  0  0  0  0  0  0  0
    1.1387    2.1904    0.0000 S   0  0  0  0  0  0  0  0  0  0  0  0
    1.9233    1.9354    0.0000 C   0  0  0  0  0  0  0  0  0  0  0  0
    2.6378    2.3479    0.0000 C   0  0  0  0  0  0  0  0  0  0  0  0
  1  2  1  0
  2  3  2  0
  2  4  1  0
  4  5  1  0
  5  6  1  0
  6  7  1  0
  7  8  2  0
  8  9  1  0
  9 10  1  0
 10 11  2  0
 11 12  1  0
 11 13  1  0
 13 14  2  0
 14 15  1  0
  9 15  2  0
 15 16  1  0
  7 16  1  0
 16 17  1  0
 17 18  2  0
 17 19  2  0
 17 20  1  0
 20 21  2  0
 21 22  1  0
 22 23  2  0
 23 24  1  0
 24 25  2  0
 25 26  1  0
 26 27  1  0
 23 27  1  0
 27 28  2  0
 20 28  1  0
M  END
>  <ID>  (30) 
T7395

>  <CAS>  (30) 
927961-18-0

>  <Formula>  (30) 
C19H15ClN2O4S2

>  <MolWt>  (30) 
434.92

>  <rank>  (30) 
30

>  <final_score>  (30) 
0.0000

>  <max_tc>  (30) 
1.0000

>  <best_match>  (30) 
Lanifibranor (IVA-337)

>  <best_target>  (30) 
PPAR-alpha/gamma/delta

>  <physchem_compliance>  (30) 
0.0000

>  <toxic_score>  (30) 
0.8000

$$$$

     RDKit          2D

 27 30  0  0  0  0  0  0  0  0999 V2000
    2.8728   -3.9050    0.0000 C   0  0  0  0  0  0  0  0  0  0  0  0
    2.5619   -3.1408    0.0000 C   0  0  0  0  0  0  0  0  0  0  0  0
    1.7447   -3.0280    0.0000 C   0  0  0  0  0  0  0  0  0  0  0  0
    1.2383   -3.6793    0.0000 C   0  0  0  0  0  0  0  0  0  0  0  0
    0.4211   -3.5665    0.0000 C   0  0  0  0  0  0  0  0  0  0  0  0
   -0.0853   -4.2178    0.0000 O   0  0  0  0  0  0  0  0  0  0  0  0
    0.1102   -2.8023    0.0000 O   0  0  0  0  0  0  0  0  0  0  0  0
    3.0683   -2.4895    0.0000 C   0  0  0  0  0  0  0  0  0  0  0  0
    2.8390   -1.6970    0.0000 C   0  0  0  0  0  0  0  0  0  0  0  0
    3.5218   -1.2340    0.0000 C   0  0  0  0  0  0  0  0  0  0  0  0
    4.1731   -1.7404    0.0000 C   0  0  0  0  0  0  0  0  0  0  0  0
    4.9853   -1.5952    0.0000 C   0  0  0  0  0  0  0  0  0  0  0  0
    5.2655   -0.8192    0.0000 C   0  0  0  0  0  0  0  0  0  0  0  0
    6.0777   -0.6740    0.0000 C   0  0  0  0  0  0  0  0  0  0  0  0
    6.6095   -1.3047    0.0000 C   0  0  0  0  0  0  0  0  0  0  0  0
    7.4216   -1.1595    0.0000 C   0  0  0  0  0  0  0  0  0  0  0  0
    7.9534   -1.7902    0.0000 C   0  0  0  0  0  0  0  0  0  0  0  0
    8.7655   -1.6450    0.0000 O   0  0  0  0  0  0  0  0  0  0  0  0
    7.6731   -2.5662    0.0000 C   0  0  0  0  0  0  0  0  0  0  0  0
    6.8610   -2.7114    0.0000 C   0  0  0  0  0  0  0  0  0  0  0  0
    6.3292   -2.0807    0.0000 C   0  0  0  0  0  0  0  0  0  0  0  0
    6.0489   -2.8566    0.0000 C   0  0  0  0  0  0  0  0  0  0  0  0
    5.5171   -2.2259    0.0000 C   0  0  0  0  0  0  0  0  0  0  0  0
    5.2368   -3.0018    0.0000 C   0  0  0  0  0  0  0  0  0  0  0  0
    4.4247   -3.1470    0.0000 C   0  0  0  0  0  0  0  0  0  0  0  0
    3.8928   -2.5163    0.0000 C   0  0  0  0  0  0  0  0  0  0  0  0
    3.5330   -3.2587    0.0000 C   0  0  0  0  0  0  0  0  0  0  0  0
  1  2  1  0
  2  3  1  0
  3  4  1  0
  4  5  1  0
  5  6  2  0
  5  7  1  0
  2  8  1  0
  8  9  1  0
  9 10  1  0
 10 11  1  0
 11 12  1  0
 12 13  1  0
 13 14  1  0
 14 15  2  0
 15 16  1  0
 16 17  1  0
 17 18  1  0
 17 19  1  0
 19 20  1  0
 20 21  1  0
 15 21  1  0
 21 22  1  0
 21 23  1  0
 12 23  1  0
 23 24  1  0
 24 25  1  0
 25 26  1  0
  8 26  1  0
 11 26  1  0
 26 27  1  0
M  END
>  <ID>  (31) 
T7628

>  <CAS>  (31) 
5255-17-4

>  <Formula>  (31) 
C24H38O3

>  <MolWt>  (31) 
374.56

>  <rank>  (31) 
31

>  <final_score>  (31) 
0.0000

>  <max_tc>  (31) 
0.5152

>  <best_match>  (31) 
Obeticholic acid (OCA)

>  <best_target>  (31) 
FXR

>  <physchem_compliance>  (31) 
0.0000

>  <toxic_score>  (31) 
0.4000

$$$$

     RDKit          2D

 34 37  0  0  1  0  0  0  0  0999 V2000
   -2.0293   -6.2238    0.0000 O   0  0  0  0  0  0  0  0  0  0  0  0
   -2.2842   -5.4392    0.0000 C   0  0  0  0  0  0  0  0  0  0  0  0
   -1.7322   -4.8261    0.0000 C   0  0  0  0  0  0  0  0  0  0  0  0
   -1.4772   -5.6107    0.0000 H   0  0  0  0  0  0  0  0  0  0  0  0
   -0.9252   -4.9976    0.0000 C   0  0  0  0  0  0  0  0  0  0  0  0
   -1.1801   -4.2130    0.0000 H   0  0  0  0  0  0  0  0  0  0  0  0
   -0.3732   -4.3845    0.0000 C   0  0  0  0  0  0  0  0  0  0  0  0
    0.3805   -4.7201    0.0000 C   0  0  0  0  0  0  0  0  0  0  0  0
    0.2943   -5.5405    0.0000 C   0  0  0  0  0  0  0  0  0  0  0  0
   -0.5127   -5.7121    0.0000 C   0  0  0  0  0  0  0  0  0  0  0  0
    1.0724   -5.1694    0.0000 H   0  0  0  0  0  0  0  0  0  0  0  0
    1.0950   -4.3076    0.0000 C   0  0  0  0  0  0  0  0  0  0  0  0
    1.0950   -3.4826    0.0000 C   0  0  0  0  0  0  0  0  0  0  0  0
    1.8094   -4.7201    0.0000 C   0  0  0  0  0  0  0  0  0  0  0  0
    2.5239   -4.3076    0.0000 C   0  0  0  0  0  0  0  0  0  0  0  0
    3.2384   -4.7201    0.0000 C   0  0  0  0  0  0  0  0  0  0  0  0
    3.9529   -4.3076    0.0000 O   0  0  0  0  0  0  0  0  0  0  0  0
    3.2384   -5.5451    0.0000 O   0  0  0  0  0  0  0  0  0  0  0  0
   -0.6281   -3.5999    0.0000 C   0  0  0  0  0  0  0  0  0  0  0  0
   -1.4351   -3.4284    0.0000 C   0  0  0  0  0  0  0  0  0  0  0  0
   -1.9871   -4.0415    0.0000 C   0  0  0  0  0  0  0  0  0  0  0  0
   -2.5391   -4.6545    0.0000 H   0  0  0  0  0  0  0  0  0  0  0  0
   -2.7941   -3.8699    0.0000 C   0  0  0  0  0  0  0  0  0  0  0  0
   -3.3461   -4.4830    0.0000 C   0  0  0  0  0  0  0  0  0  0  0  0
   -4.1531   -4.3115    0.0000 C   0  0  0  0  0  0  0  0  0  0  0  0
   -4.4080   -3.5269    0.0000 C   0  0  0  0  0  0  0  0  0  0  0  0
   -3.8560   -2.9138    0.0000 C   0  0  0  0  0  0  0  0  0  0  0  0
   -3.0490   -3.0853    0.0000 C   0  0  0  0  0  0  0  0  0  0  0  0
   -5.2150   -3.3553    0.0000 O   0  0  0  0  0  0  0  0  0  0  0  0
   -3.8982   -5.0961    0.0000 H   0  0  0  0  0  0  0  0  0  0  0  0
   -3.0912   -5.2676    0.0000 C   0  0  0  0  0  0  0  0  0  0  0  0
   -2.2421   -3.2568    0.0000 C   0  0  0  0  0  0  0  0  0  0  0  0
   -0.0761   -2.9868    0.0000 O   0  0  0  0  0  0  0  0  0  0  0  0
    0.2399   -3.8325    0.0000 C   0  0  0  0  0  0  0  0  0  0  0  0
  2  1  1  6
  3  2  1  0
  3  4  1  1
  3  5  1  0
  5  6  1  6
  5  7  1  0
  7  8  1  0
  8  9  1  0
  9 10  1  0
  5 10  1  0
  8 11  1  6
  8 12  1  0
 12 13  1  6
 12 14  1  0
 14 15  1  0
 15 16  1  0
 16 17  1  0
 16 18  2  0
  7 19  1  0
 19 20  1  0
 21 20  1  0
  3 21  1  0
 21 22  1  6
 21 23  1  0
 23 24  1  0
 24 25  1  0
 26 25  1  0
 26 27  1  0
 27 28  1  0
 23 28  1  0
 26 29  1  6
 24 30  1  1
 24 31  1  0
  2 31  1  0
 23 32  1  1
 19 33  1  6
  7 34  1  1
M  CHG  1  17  -1
M  END
>  <ID>  (32) 
T4537

>  <CAS>  (32) 
361-09-1

>  <Formula>  (32) 
C24H39NaO5

>  <MolWt>  (32) 
430.55

>  <rank>  (32) 
32

>  <final_score>  (32) 
0.0000

>  <max_tc>  (32) 
0.3117

>  <best_match>  (32) 
Obeticholic acid (OCA)

>  <best_target>  (32) 
FXR

>  <physchem_compliance>  (32) 
0.0000

>  <toxic_score>  (32) 
0.8000

$$$$

     RDKit          2D

 36 39  0  0  1  0  0  0  0  0999 V2000
    2.7173   -1.5234    0.0000 H   0  0  0  0  0  0  0  0  0  0  0  0
    2.9722   -2.3080    0.0000 C   0  0  0  0  0  0  0  0  0  0  0  0
    3.3847   -3.0225    0.0000 C   0  0  0  0  0  0  0  0  0  0  0  0
    4.1917   -2.8510    0.0000 C   0  0  0  0  0  0  0  0  0  0  0  0
    4.2780   -2.0305    0.0000 C   0  0  0  0  0  0  0  0  0  0  0  0
    4.9924   -1.6180    0.0000 C   0  0  0  0  0  0  0  0  0  0  0  0
    4.9924   -0.7930    0.0000 C   0  0  0  0  0  0  0  0  0  0  0  0
    5.7069   -2.0305    0.0000 C   0  0  0  0  0  0  0  0  0  0  0  0
    6.4214   -1.6180    0.0000 C   0  0  0  0  0  0  0  0  0  0  0  0
    7.1358   -2.0305    0.0000 C   0  0  0  0  0  0  0  0  0  0  0  0
    7.1358   -2.8555    0.0000 O   0  0  0  0  0  0  0  0  0  0  0  0
    7.8503   -1.6180    0.0000 N   0  0  0  0  0  0  0  0  0  0  0  0
    8.5648   -2.0305    0.0000 C   0  0  0  0  0  0  0  0  0  0  0  0
    9.2792   -1.6180    0.0000 C   0  0  0  0  0  0  0  0  0  0  0  0
    9.9937   -2.0305    0.0000 O   0  0  0  0  0  0  0  0  0  0  0  0
    9.2792   -0.7930    0.0000 O   0  0  0  0  0  0  0  0  0  0  0  0
    3.5243   -1.6949    0.0000 C   0  0  0  0  0  0  0  0  0  0  0  0
    4.1374   -1.1429    0.0000 C   0  0  0  0  0  0  0  0  0  0  0  0
    3.2693   -0.9103    0.0000 C   0  0  0  0  0  0  0  0  0  0  0  0
    2.4624   -0.7388    0.0000 C   0  0  0  0  0  0  0  0  0  0  0  0
    1.9103   -1.3519    0.0000 C   0  0  0  0  0  0  0  0  0  0  0  0
    1.3583   -1.9650    0.0000 H   0  0  0  0  0  0  0  0  0  0  0  0
    2.1653   -2.1365    0.0000 C   0  0  0  0  0  0  0  0  0  0  0  0
    2.4202   -2.9211    0.0000 H   0  0  0  0  0  0  0  0  0  0  0  0
    1.6132   -2.7496    0.0000 C   0  0  0  0  0  0  0  0  0  0  0  0
    0.8063   -2.5781    0.0000 C   0  0  0  0  0  0  0  0  0  0  0  0
    0.2542   -3.1912    0.0000 O   0  0  0  0  0  0  0  0  0  0  0  0
    0.5513   -1.7935    0.0000 C   0  0  0  0  0  0  0  0  0  0  0  0
    0.2964   -1.0088    0.0000 H   0  0  0  0  0  0  0  0  0  0  0  0
   -0.2556   -1.6219    0.0000 C   0  0  0  0  0  0  0  0  0  0  0  0
   -0.5106   -0.8373    0.0000 C   0  0  0  0  0  0  0  0  0  0  0  0
   -1.3176   -0.6658    0.0000 O   0  0  0  0  0  0  0  0  0  0  0  0
    0.0414   -0.2242    0.0000 C   0  0  0  0  0  0  0  0  0  0  0  0
    0.8484   -0.3957    0.0000 C   0  0  0  0  0  0  0  0  0  0  0  0
    1.1034   -1.1804    0.0000 C   0  0  0  0  0  0  0  0  0  0  0  0
    1.6554   -0.5673    0.0000 C   0  0  0  0  0  0  0  0  0  0  0  0
  2  1  1  6
  2  3  1  0
  3  4  1  0
  5  4  1  1
  5  6  1  0
  6  7  1  6
  6  8  1  0
  8  9  1  0
  9 10  1  0
 10 11  2  0
 10 12  1  0
 12 13  1  0
 13 14  1  0
 14 15  1  0
 14 16  2  0
 17  5  1  0
  2 17  1  0
 17 18  1  1
 17 19  1  0
 19 20  1  0
 21 20  1  0
 21 22  1  6
 23 21  1  0
  2 23  1  0
 23 24  1  1
 23 25  1  0
 26 25  1  0
 26 27  1  6
 28 26  1  0
 28 29  1  1
 28 30  1  0
 31 30  1  0
 31 32  1  6
 31 33  1  0
 33 34  1  0
 35 34  1  0
 21 35  1  0
 35 28  1  0
 35 36  1  1
M  END
>  <ID>  (33) 
T8153

>  <CAS>  (33) 
13042-33-6

>  <Formula>  (33) 
C26H43NO5

>  <MolWt>  (33) 
449.62

>  <rank>  (33) 
33

>  <final_score>  (33) 
0.0000

>  <max_tc>  (33) 
0.4167

>  <best_match>  (33) 
Obeticholic acid (OCA)

>  <best_target>  (33) 
FXR

>  <physchem_compliance>  (33) 
0.0000

>  <toxic_score>  (33) 
0.8000

$$$$

     RDKit          2D

 34 37  0  0  1  0  0  0  0  0999 V2000
    4.9924   -0.7930    0.0000 C   0  0  0  0  0  0  0  0  0  0  0  0
    4.9924   -1.6180    0.0000 C   0  0  0  0  0  0  0  0  0  0  0  0
    5.7069   -2.0305    0.0000 C   0  0  0  0  0  0  0  0  0  0  0  0
    6.4214   -1.6180    0.0000 C   0  0  0  0  0  0  0  0  0  0  0  0
    7.1358   -2.0305    0.0000 C   0  0  0  0  0  0  0  0  0  0  0  0
    7.1358   -2.8555    0.0000 O   0  0  0  0  0  0  0  0  0  0  0  0
    7.8503   -1.6180    0.0000 N   0  0  0  0  0  0  0  0  0  0  0  0
    8.5648   -2.0305    0.0000 C   0  0  0  0  0  0  0  0  0  0  0  0
    9.2792   -1.6180    0.0000 C   0  0  0  0  0  0  0  0  0  0  0  0
    9.9937   -2.0305    0.0000 S   0  0  0  0  0  0  0  0  0  0  0  0
   10.7082   -2.4430    0.0000 O   0  0  0  0  0  0  0  0  0  0  0  0
   10.4062   -1.3160    0.0000 O   0  0  0  0  0  0  0  0  0  0  0  0
    9.5812   -2.7450    0.0000 O   0  0  0  0  0  0  0  0  0  0  0  0
    4.2780   -2.0305    0.0000 C   0  0  0  0  0  0  0  0  0  0  0  0
    4.1917   -2.8510    0.0000 C   0  0  0  0  0  0  0  0  0  0  0  0
    3.3847   -3.0225    0.0000 C   0  0  0  0  0  0  0  0  0  0  0  0
    2.9722   -2.3080    0.0000 C   0  0  0  0  0  0  0  0  0  0  0  0
    2.1653   -2.1365    0.0000 C   0  0  0  0  0  0  0  0  0  0  0  0
    1.6132   -2.7496    0.0000 C   0  0  0  0  0  0  0  0  0  0  0  0
    0.8063   -2.5781    0.0000 C   0  0  0  0  0  0  0  0  0  0  0  0
    0.2542   -3.1912    0.0000 O   0  0  0  0  0  0  0  0  0  0  0  0
    0.5513   -1.7935    0.0000 C   0  0  0  0  0  0  0  0  0  0  0  0
   -0.2556   -1.6219    0.0000 C   0  0  0  0  0  0  0  0  0  0  0  0
   -0.5106   -0.8373    0.0000 C   0  0  0  0  0  0  0  0  0  0  0  0
   -1.3176   -0.6658    0.0000 O   0  0  0  0  0  0  0  0  0  0  0  0
    0.0414   -0.2242    0.0000 C   0  0  0  0  0  0  0  0  0  0  0  0
    0.8484   -0.3957    0.0000 C   0  0  0  0  0  0  0  0  0  0  0  0
    1.1034   -1.1804    0.0000 C   0  0  0  0  0  0  0  0  0  0  0  0
    1.6554   -0.5673    0.0000 C   0  0  0  0  0  0  0  0  0  0  0  0
    1.9103   -1.3519    0.0000 C   0  0  0  0  0  0  0  0  0  0  0  0
    2.4624   -0.7388    0.0000 C   0  0  0  0  0  0  0  0  0  0  0  0
    3.2693   -0.9103    0.0000 C   0  0  0  0  0  0  0  0  0  0  0  0
    3.5243   -1.6949    0.0000 C   0  0  0  0  0  0  0  0  0  0  0  0
    4.1374   -1.1429    0.0000 C   0  0  0  0  0  0  0  0  0  0  0  0
  2  1  1  6
  2  3  1  0
  3  4  1  0
  4  5  1  0
  5  6  2  0
  5  7  1  0
  7  8  1  0
  8  9  1  0
  9 10  1  0
 10 11  1  0
 10 12  2  0
 10 13  2  0
 14  2  1  0
 14 15  1  1
 15 16  1  0
 17 16  1  1
 17 18  1  0
 18 19  1  6
 20 19  1  0
 20 21  1  6
 22 20  1  0
 22 23  1  6
 24 23  1  0
 24 25  1  6
 24 26  1  0
 26 27  1  0
 28 27  1  0
 28 22  1  0
 28 29  1  1
 30 28  1  0
 18 30  1  0
 30 31  1  1
 31 32  1  0
 33 32  1  0
 14 33  1  0
 33 17  1  0
 33 34  1  1
M  CHG  1  11  -1
M  END
>  <ID>  (34) 
T8092

>  <CAS>  (34) 
38411-85-7

>  <Formula>  (34) 
C26H44NNaO6S

>  <MolWt>  (34) 
521.69

>  <rank>  (34) 
34

>  <final_score>  (34) 
0.0000

>  <max_tc>  (34) 
0.4789

>  <best_match>  (34) 
Obeticholic acid (OCA)

>  <best_target>  (34) 
FXR

>  <physchem_compliance>  (34) 
0.0000

>  <toxic_score>  (34) 
0.8000

$$$$

     RDKit          2D

 28 31  0  0  1  0  0  0  0  0999 V2000
    0.6857    2.5951    0.0000 C   0  0  0  0  0  0  0  0  0  0  0  0
    1.4978    2.4498    0.0000 C   0  0  0  0  0  0  0  0  0  0  0  0
    1.7781    1.6739    0.0000 C   0  0  0  0  0  0  0  0  0  0  0  0
    2.5902    1.5287    0.0000 C   0  0  0  0  0  0  0  0  0  0  0  0
    3.1220    2.1594    0.0000 O   0  0  0  0  0  0  0  0  0  0  0  0
    2.8705    0.7528    0.0000 C   0  0  0  0  0  0  0  0  0  0  0  0
    3.6826    0.6076    0.0000 C   0  0  0  0  0  0  0  0  0  0  0  0
    4.3340    1.1139    0.0000 C   0  0  0  0  0  0  0  0  0  0  0  0
    5.0168    0.6509    0.0000 C   0  0  0  0  0  0  0  0  0  0  0  0
    4.7875   -0.1416    0.0000 C   0  0  0  0  0  0  0  0  0  0  0  0
    5.2939   -0.7929    0.0000 C   0  0  0  0  0  0  0  0  0  0  0  0
    4.9830   -1.5571    0.0000 C   0  0  0  0  0  0  0  0  0  0  0  0
    6.1111   -0.6800    0.0000 C   0  0  0  0  0  0  0  0  0  0  0  0
    6.6175   -1.3314    0.0000 C   0  0  0  0  0  0  0  0  0  0  0  0
    7.4347   -1.2185    0.0000 O   0  0  0  0  0  0  0  0  0  0  0  0
    3.9629   -0.1684    0.0000 C   0  0  0  0  0  0  0  0  0  0  0  0
    4.3228   -0.9107    0.0000 C   0  0  0  0  0  0  0  0  0  0  0  0
    3.4311   -0.7991    0.0000 C   0  0  0  0  0  0  0  0  0  0  0  0
    2.6190   -0.6539    0.0000 C   0  0  0  0  0  0  0  0  0  0  0  0
    2.3387    0.1221    0.0000 C   0  0  0  0  0  0  0  0  0  0  0  0
    1.5266    0.2673    0.0000 C   0  0  0  0  0  0  0  0  0  0  0  0
    1.8069   -0.5086    0.0000 C   0  0  0  0  0  0  0  0  0  0  0  0
    0.9948   -0.3634    0.0000 C   0  0  0  0  0  0  0  0  0  0  0  0
    0.1827   -0.2182    0.0000 C   0  0  0  0  0  0  0  0  0  0  0  0
   -0.0976    0.5577    0.0000 C   0  0  0  0  0  0  0  0  0  0  0  0
   -0.9098    0.7029    0.0000 O   0  0  0  0  0  0  0  0  0  0  0  0
    0.4342    1.1884    0.0000 C   0  0  0  0  0  0  0  0  0  0  0  0
    1.2463    1.0432    0.0000 C   0  0  0  0  0  0  0  0  0  0  0  0
  1  2  1  0
  3  2  1  1
  4  3  1  0
  4  5  1  1
  6  4  1  1
  6  7  1  0
  7  8  1  6
  8  9  1  0
 10  9  1  6
 10 11  1  0
 11 12  1  1
 11 13  1  0
 13 14  1  0
 14 15  1  0
 16 10  1  0
  7 16  1  0
 16 17  1  6
 16 18  1  0
 18 19  1  0
 20 19  1  6
  6 20  1  0
 20 21  1  0
 21 22  1  6
 21 23  1  0
 23 24  1  0
 25 24  1  0
 25 26  1  1
 25 27  1  0
 28 27  1  1
  3 28  1  0
 21 28  1  0
M  END
>  <ID>  (35) 
TQ0252

>  <CAS>  (35) 
1612191-86-2

>  <Formula>  (35) 
C25H44O3

>  <MolWt>  (35) 
392.62

>  <rank>  (35) 
35

>  <final_score>  (35) 
0.0000

>  <max_tc>  (35) 
0.7736

>  <best_match>  (35) 
Obeticholic acid (OCA)

>  <best_target>  (35) 
FXR

>  <physchem_compliance>  (35) 
0.0000

>  <toxic_score>  (35) 
0.4000

$$$$

     RDKit          2D

 40 44  0  0  1  0  0  0  0  0999 V2000
    1.4289   -1.6500    0.0000 C   0  0  0  0  0  0  0  0  0  0  0  0
    1.4289   -2.4750    0.0000 O   0  0  0  0  0  0  0  0  0  0  0  0
    0.7145   -2.8875    0.0000 C   0  0  0  0  0  0  0  0  0  0  0  0
    0.7145   -3.7125    0.0000 C   0  0  0  0  0  0  0  0  0  0  0  0
    0.0000   -4.1250    0.0000 C   0  0  0  0  0  0  0  0  0  0  0  0
   -0.7145   -3.7125    0.0000 C   0  0  0  0  0  0  0  0  0  0  0  0
   -0.7145   -2.8875    0.0000 C   0  0  0  0  0  0  0  0  0  0  0  0
    0.0000   -2.4750    0.0000 C   0  0  0  0  0  0  0  0  0  0  0  0
    0.0000   -1.6500    0.0000 C   0  0  0  0  0  0  0  0  0  0  0  0
    0.7145   -1.2375    0.0000 C   0  0  0  0  0  0  0  0  0  0  0  0
    0.7145   -0.4125    0.0000 N   0  0  0  0  0  0  0  0  0  0  0  0
    0.0000    0.0000    0.0000 C   0  0  0  0  0  0  0  0  0  0  0  0
   -0.7846   -0.2549    0.0000 S   0  0  0  0  0  0  0  0  0  0  0  0
   -1.2695    0.4125    0.0000 C   0  0  0  0  0  0  0  0  0  0  0  0
   -2.0945    0.4125    0.0000 C   0  0  0  0  0  0  0  0  0  0  0  0
   -2.5795   -0.2549    0.0000 N   0  0  0  0  0  0  0  0  0  0  0  0
   -3.3641   -0.0000    0.0000 C   0  0  0  0  0  0  0  0  0  0  0  0
   -3.3641    0.8250    0.0000 C   0  0  0  0  0  0  0  0  0  0  0  0
   -2.5795    1.0799    0.0000 O   0  0  0  0  0  0  0  0  0  0  0  0
   -0.7846    1.0799    0.0000 C   0  0  0  0  0  0  0  0  0  0  0  0
   -1.0396    1.8646    0.0000 C   0  0  0  0  0  0  0  0  0  0  0  0
    0.0000    0.8250    0.0000 C   0  0  0  0  0  0  0  0  0  0  0  0
    0.7145    1.2375    0.0000 C   0  0  0  0  0  0  0  0  0  0  0  0
    0.7145    2.0625    0.0000 O   0  0  0  0  0  0  0  0  0  0  0  0
    1.4289    0.8250    0.0000 N   0  0  0  0  0  0  0  0  0  0  0  0
    1.4289    0.0000    0.0000 C   0  0  0  0  0  0  0  0  0  0  0  0
    2.1434   -0.4125    0.0000 O   0  0  0  0  0  0  0  0  0  0  0  0
    2.1434    1.2375    0.0000 C   0  0  0  0  0  0  0  0  0  0  0  0
    1.7309    1.9520    0.0000 C   0  0  0  0  0  0  0  0  0  0  0  0
    2.5559    0.5230    0.0000 C   0  0  0  0  0  0  0  0  0  0  0  0
    2.8579    1.6500    0.0000 C   0  0  0  0  0  0  0  0  0  0  0  0
    2.8579    2.4750    0.0000 N   0  0  0  0  0  0  0  0  0  0  0  0
    3.5724    1.2375    0.0000 O   0  0  0  0  0  0  0  0  0  0  0  0
   -0.7145   -1.2375    0.0000 O   0  0  0  0  0  0  0  0  0  0  0  0
   -1.4289   -1.6500    0.0000 C   0  0  0  0  0  0  0  0  0  0  0  0
   -1.4289   -2.4750    0.0000 C   0  0  0  0  0  0  0  0  0  0  0  0
   -2.1434   -2.8875    0.0000 C   0  0  0  0  0  0  0  0  0  0  0  0
   -2.8579   -2.4750    0.0000 O   0  0  0  0  0  0  0  0  0  0  0  0
   -2.8579   -1.6500    0.0000 C   0  0  0  0  0  0  0  0  0  0  0  0
   -2.1434   -1.2375    0.0000 C   0  0  0  0  0  0  0  0  0  0  0  0
  1  2  1  0
  2  3  1  0
  3  4  2  0
  4  5  1  0
  5  6  2  0
  6  7  1  0
  7  8  2  0
  3  8  1  0
  9  8  1  0
  9 10  1  1
 10 11  1  0
 11 12  1  0
 12 13  1  0
 13 14  1  0
 14 15  1  0
 15 16  2  0
 16 17  1  0
 17 18  2  0
 18 19  1  0
 15 19  1  0
 14 20  2  0
 20 21  1  0
 20 22  1  0
 12 22  2  0
 22 23  1  0
 23 24  2  0
 23 25  1  0
 25 26  1  0
 11 26  1  0
 26 27  2  0
 25 28  1  0
 28 29  1  0
 28 30  1  0
 28 31  1  0
 31 32  1  0
 31 33  2  0
  9 34  1  0
 34 35  1  0
 35 36  1  0
 36 37  1  0
 37 38  1  0
 38 39  1  0
 39 40  1  0
 35 40  1  0
M  END
>  <ID>  (36) 
TQ0243

>  <CAS>  (36) 
1434639-57-2

>  <Formula>  (36) 
C28H32N4O7S

>  <MolWt>  (36) 
568.64

>  <rank>  (36) 
36

>  <final_score>  (36) 
0.0000

>  <max_tc>  (36) 
0.8889

>  <best_match>  (36) 
Firsocostat (GS-0976)

>  <best_target>  (36) 
ACC

>  <physchem_compliance>  (36) 
0.0000

>  <toxic_score>  (36) 
0.6000

$$$$

     RDKit          2D

 34 37  0  0  1  0  0  0  0  0999 V2000
    1.8069   -2.9836    0.0000 C   0  0  0  0  0  0  0  0  0  0  0  0
    1.5266   -2.2077    0.0000 C   0  0  0  0  0  0  0  0  0  0  0  0
    2.3387   -2.3529    0.0000 C   0  0  0  0  0  0  0  0  0  0  0  0
    2.8705   -1.7222    0.0000 C   0  0  0  0  0  0  0  0  0  0  0  0
    3.6826   -1.8674    0.0000 C   0  0  0  0  0  0  0  0  0  0  0  0
    3.9629   -2.6434    0.0000 C   0  0  0  0  0  0  0  0  0  0  0  0
    4.3228   -3.3857    0.0000 C   0  0  0  0  0  0  0  0  0  0  0  0
    3.4311   -3.2741    0.0000 C   0  0  0  0  0  0  0  0  0  0  0  0
    2.6190   -3.1289    0.0000 C   0  0  0  0  0  0  0  0  0  0  0  0
    4.7875   -2.6166    0.0000 C   0  0  0  0  0  0  0  0  0  0  0  0
    5.2939   -3.2679    0.0000 C   0  0  0  0  0  0  0  0  0  0  0  0
    6.1111   -3.1550    0.0000 C   0  0  0  0  0  0  0  0  0  0  0  0
    6.6175   -3.8064    0.0000 C   0  0  0  0  0  0  0  0  0  0  0  0
    7.4347   -3.6935    0.0000 C   0  0  0  0  0  0  0  0  0  0  0  0
    7.9411   -4.3448    0.0000 O   0  0  0  0  0  0  0  0  0  0  0  0
    4.9830   -4.0321    0.0000 C   0  0  0  0  0  0  0  0  0  0  0  0
    5.0168   -1.8241    0.0000 C   0  0  0  0  0  0  0  0  0  0  0  0
    4.3340   -1.3611    0.0000 C   0  0  0  0  0  0  0  0  0  0  0  0
    5.5977   -2.4611    0.0000 H   0  0  0  0  0  0  0  0  0  0  0  0
    3.1508   -2.4981    0.0000 H   0  0  0  0  0  0  0  0  0  0  0  0
    2.5902   -0.9463    0.0000 C   0  0  0  0  0  0  0  0  0  0  0  0
    3.1220   -0.3156    0.0000 O   0  0  0  0  0  0  0  0  0  0  0  0
    1.7781   -0.8011    0.0000 C   0  0  0  0  0  0  0  0  0  0  0  0
    1.4978   -0.0252    0.0000 C   0  0  0  0  0  0  0  0  0  0  0  0
    0.6857    0.1201    0.0000 C   0  0  0  0  0  0  0  0  0  0  0  0
    1.2463   -1.4318    0.0000 C   0  0  0  0  0  0  0  0  0  0  0  0
    0.4342   -1.2866    0.0000 C   0  0  0  0  0  0  0  0  0  0  0  0
   -0.0976   -1.9173    0.0000 C   0  0  0  0  0  0  0  0  0  0  0  0
   -0.9098   -1.7721    0.0000 O   0  0  0  0  0  0  0  0  0  0  0  0
    0.1827   -2.6932    0.0000 C   0  0  0  0  0  0  0  0  0  0  0  0
    0.9948   -2.8384    0.0000 C   0  0  0  0  0  0  0  0  0  0  0  0
    0.7145   -2.0625    0.0000 H   0  0  0  0  0  0  0  0  0  0  0  0
    3.4023   -1.0915    0.0000 H   0  0  0  0  0  0  0  0  0  0  0  0
    2.0584   -1.5770    0.0000 H   0  0  0  0  0  0  0  0  0  0  0  0
  2  1  1  6
  3  2  1  0
  4  3  1  0
  4  5  1  0
  5  6  1  0
  6  7  1  6
  6  8  1  0
  8  9  1  0
  3  9  1  0
  6 10  1  0
 10 11  1  0
 11 12  1  0
 12 13  1  0
 13 14  1  0
 14 15  1  0
 11 16  1  1
 10 17  1  0
 17 18  1  0
  5 18  1  0
 10 19  1  1
  5 20  1  1
  4 21  1  0
 21 22  1  1
 21 23  1  0
 23 24  1  6
 24 25  1  0
 23 26  1  0
  2 26  1  0
 26 27  1  0
 28 27  1  0
 28 29  1  1
 28 30  1  0
 30 31  1  0
  2 31  1  0
 26 32  1  6
  4 33  1  6
  3 34  1  1
M  END
>  <ID>  (37) 
T8752

>  <CAS>  (37) 
1632118-70-7

>  <Formula>  (37) 
C26H46O3

>  <MolWt>  (37) 
406.64

>  <rank>  (37) 
37

>  <final_score>  (37) 
0.0000

>  <max_tc>  (37) 
0.3611

>  <best_match>  (37) 
Obeticholic acid (OCA)

>  <best_target>  (37) 
FXR

>  <physchem_compliance>  (37) 
0.0000

>  <toxic_score>  (37) 
0.4000

$$$$

     RDKit          2D

 27 29  0  0  0  0  0  0  0  0999 V2000
    0.8838   -2.1500    0.0000 C   0  0  0  0  0  0  0  0  0  0  0  0
    1.1387   -1.3654    0.0000 C   0  0  0  0  0  0  0  0  0  0  0  0
    0.6538   -0.6979    0.0000 C   0  0  0  0  0  0  0  0  0  0  0  0
    1.1387   -0.0305    0.0000 S   0  0  0  0  0  0  0  0  0  0  0  0
    1.9233   -0.2854    0.0000 C   0  0  0  0  0  0  0  0  0  0  0  0
    2.6378    0.1271    0.0000 N   0  0  0  0  0  0  0  0  0  0  0  0
    3.3523   -0.2854    0.0000 C   0  0  0  0  0  0  0  0  0  0  0  0
    4.0668    0.1271    0.0000 O   0  0  0  0  0  0  0  0  0  0  0  0
    3.3523   -1.1104    0.0000 N   0  0  0  0  0  0  0  0  0  0  0  0
    2.6378   -1.5229    0.0000 C   0  0  0  0  0  0  0  0  0  0  0  0
    2.6378   -2.3479    0.0000 O   0  0  0  0  0  0  0  0  0  0  0  0
    1.9233   -1.1104    0.0000 C   0  0  0  0  0  0  0  0  0  0  0  0
    4.0668   -1.5229    0.0000 C   0  0  0  0  0  0  0  0  0  0  0  0
    4.4793   -0.8085    0.0000 C   0  0  0  0  0  0  0  0  0  0  0  0
    3.6543   -2.2374    0.0000 C   0  0  0  0  0  0  0  0  0  0  0  0
    4.7812   -1.9354    0.0000 C   0  0  0  0  0  0  0  0  0  0  0  0
    4.7812   -2.7604    0.0000 O   0  0  0  0  0  0  0  0  0  0  0  0
    5.4957   -1.5229    0.0000 O   0  0  0  0  0  0  0  0  0  0  0  0
    6.2102   -1.9354    0.0000 C   0  0  0  0  0  0  0  0  0  0  0  0
    6.9246   -2.3479    0.0000 C   0  0  0  0  0  0  0  0  0  0  0  0
    6.6227   -1.2210    0.0000 C   0  0  0  0  0  0  0  0  0  0  0  0
    5.7977   -2.6499    0.0000 C   0  0  0  0  0  0  0  0  0  0  0  0
   -0.1712   -0.6979    0.0000 C   0  0  0  0  0  0  0  0  0  0  0  0
   -0.6561   -1.3654    0.0000 N   0  0  0  0  0  0  0  0  0  0  0  0
   -1.4407   -1.1104    0.0000 C   0  0  0  0  0  0  0  0  0  0  0  0
   -1.4407   -0.2854    0.0000 C   0  0  0  0  0  0  0  0  0  0  0  0
   -0.6561   -0.0305    0.0000 O   0  0  0  0  0  0  0  0  0  0  0  0
  1  2  1  0
  2  3  2  0
  3  4  1  0
  4  5  1  0
  5  6  1  0
  6  7  1  0
  7  8  2  0
  7  9  1  0
  9 10  1  0
 10 11  2  0
 10 12  1  0
  2 12  1  0
  5 12  2  0
  9 13  1  0
 13 14  1  0
 13 15  1  0
 13 16  1  0
 16 17  2  0
 16 18  1  0
 18 19  1  0
 19 20  1  0
 19 21  1  0
 19 22  1  0
  3 23  1  0
 23 24  2  0
 24 25  1  0
 25 26  2  0
 26 27  1  0
 23 27  1  0
M  END
>  <ID>  (38) 
T8754

>  <CAS>  (38) 
2131091-31-9

>  <Formula>  (38) 
C18H21N3O5S

>  <MolWt>  (38) 
391.4

>  <rank>  (38) 
38

>  <final_score>  (38) 
0.0000

>  <max_tc>  (38) 
0.3656

>  <best_match>  (38) 
Firsocostat (GS-0976)

>  <best_target>  (38) 
ACC

>  <physchem_compliance>  (38) 
0.0000

>  <toxic_score>  (38) 
0.6000

$$$$

     RDKit          2D

 39 42  0  0  1  0  0  0  0  0999 V2000
    4.9924   -0.7930    0.0000 C   0  0  0  0  0  0  0  0  0  0  0  0
    4.9924   -1.6180    0.0000 C   0  0  0  0  0  0  0  0  0  0  0  0
    5.7069   -2.0305    0.0000 C   0  0  0  0  0  0  0  0  0  0  0  0
    6.4214   -1.6180    0.0000 C   0  0  0  0  0  0  0  0  0  0  0  0
    7.1358   -2.0305    0.0000 C   0  0  0  0  0  0  0  0  0  0  0  0
    7.8503   -1.6180    0.0000 N   0  0  0  0  0  0  0  0  0  0  0  0
    8.5648   -2.0305    0.0000 C   0  0  0  0  0  0  0  0  0  0  0  0
    9.2792   -1.6180    0.0000 C   0  0  0  0  0  0  0  0  0  0  0  0
    9.9937   -2.0305    0.0000 S   0  0  0  0  0  0  0  0  0  0  0  0
    9.5812   -2.7450    0.0000 O   0  0  0  0  0  0  0  0  0  0  0  0
   10.7082   -2.4430    0.0000 O   0  0  0  0  0  0  0  0  0  0  0  0
   11.4227   -2.0305    0.0000 Na  0  0  0  0  0  1  0  0  0  0  0  0
   10.4062   -1.3160    0.0000 O   0  0  0  0  0  0  0  0  0  0  0  0
    7.1358   -2.8555    0.0000 O   0  0  0  0  0  0  0  0  0  0  0  0
    4.2780   -2.0305    0.0000 C   0  0  0  0  0  0  0  0  0  0  0  0
    4.1917   -2.8510    0.0000 C   0  0  0  0  0  0  0  0  0  0  0  0
    3.3847   -3.0225    0.0000 C   0  0  0  0  0  0  0  0  0  0  0  0
    2.9722   -2.3080    0.0000 C   0  0  0  0  0  0  0  0  0  0  0  0
    2.7173   -1.5234    0.0000 H   0  0  0  0  0  0  0  0  0  0  0  0
    2.1653   -2.1365    0.0000 C   0  0  0  0  0  0  0  0  0  0  0  0
    2.4202   -2.9211    0.0000 H   0  0  0  0  0  0  0  0  0  0  0  0
    1.6132   -2.7496    0.0000 C   0  0  0  0  0  0  0  0  0  0  0  0
    1.8682   -3.5342    0.0000 O   0  0  0  0  0  0  0  0  0  0  0  0
    0.8063   -2.5781    0.0000 C   0  0  0  0  0  0  0  0  0  0  0  0
    0.5513   -1.7935    0.0000 C   0  0  0  0  0  0  0  0  0  0  0  0
    0.2964   -1.0088    0.0000 H   0  0  0  0  0  0  0  0  0  0  0  0
   -0.2556   -1.6219    0.0000 C   0  0  0  0  0  0  0  0  0  0  0  0
   -0.5106   -0.8373    0.0000 C   0  0  0  0  0  0  0  0  0  0  0  0
   -1.3176   -0.6658    0.0000 O   0  0  0  0  0  0  0  0  0  0  0  0
    0.0414   -0.2242    0.0000 C   0  0  0  0  0  0  0  0  0  0  0  0
    0.8484   -0.3957    0.0000 C   0  0  0  0  0  0  0  0  0  0  0  0
    1.1034   -1.1804    0.0000 C   0  0  0  0  0  0  0  0  0  0  0  0
    1.6554   -0.5673    0.0000 C   0  0  0  0  0  0  0  0  0  0  0  0
    1.9103   -1.3519    0.0000 C   0  0  0  0  0  0  0  0  0  0  0  0
    1.3583   -1.9650    0.0000 H   0  0  0  0  0  0  0  0  0  0  0  0
    2.4624   -0.7388    0.0000 C   0  0  0  0  0  0  0  0  0  0  0  0
    3.2693   -0.9103    0.0000 C   0  0  0  0  0  0  0  0  0  0  0  0
    3.5243   -1.6949    0.0000 C   0  0  0  0  0  0  0  0  0  0  0  0
    4.1374   -1.1429    0.0000 C   0  0  0  0  0  0  0  0  0  0  0  0
  2  1  1  6
  2  3  1  0
  3  4  1  0
  4  5  1  0
  5  6  1  0
  6  7  1  0
  7  8  1  0
  8  9  1  0
  9 10  2  0
  9 11  1  0
 11 12  1  0
  9 13  2  0
  5 14  2  0
 15  2  1  0
 15 16  1  1
 16 17  1  0
 18 17  1  0
 18 19  1  6
 20 18  1  0
 20 21  1  1
 20 22  1  0
 22 23  1  6
 22 24  1  0
 25 24  1  0
 25 26  1  1
 25 27  1  0
 28 27  1  0
 28 29  1  6
 28 30  1  0
 30 31  1  0
 32 31  1  0
 32 25  1  0
 32 33  1  1
 34 32  1  0
 20 34  1  0
 34 35  1  6
 34 36  1  0
 36 37  1  0
 38 37  1  0
 38 15  1  0
 18 38  1  0
 38 39  1  1
M  END
>  <ID>  (39) 
TN2215

>  <CAS>  (39) 
6009-98-9

>  <Formula>  (39) 
C26H44NNaO6S

>  <MolWt>  (39) 
521.68

>  <rank>  (39) 
39

>  <final_score>  (39) 
0.0000

>  <max_tc>  (39) 
0.3373

>  <best_match>  (39) 
Obeticholic acid (OCA)

>  <best_target>  (39) 
FXR

>  <physchem_compliance>  (39) 
0.0000

>  <toxic_score>  (39) 
0.2000

$$$$

     RDKit          2D

 39 42  0  0  1  0  0  0  0  0999 V2000
    4.9924   -0.7930    0.0000 C   0  0  0  0  0  0  0  0  0  0  0  0
    4.9924   -1.6180    0.0000 C   0  0  0  0  0  0  0  0  0  0  0  0
    5.7069   -2.0305    0.0000 C   0  0  0  0  0  0  0  0  0  0  0  0
    6.4214   -1.6180    0.0000 C   0  0  0  0  0  0  0  0  0  0  0  0
    7.1358   -2.0305    0.0000 C   0  0  0  0  0  0  0  0  0  0  0  0
    7.8503   -1.6180    0.0000 N   0  0  0  0  0  0  0  0  0  0  0  0
    8.5648   -2.0305    0.0000 C   0  0  0  0  0  0  0  0  0  0  0  0
    9.2792   -1.6180    0.0000 C   0  0  0  0  0  0  0  0  0  0  0  0
    9.9937   -2.0305    0.0000 S   0  0  0  0  0  0  0  0  0  0  0  0
    9.5812   -2.7450    0.0000 O   0  0  0  0  0  0  0  0  0  0  0  0
   10.7082   -2.4430    0.0000 O   0  0  0  0  0  0  0  0  0  0  0  0
   11.4227   -2.0305    0.0000 Na  0  0  0  0  0  1  0  0  0  0  0  0
   10.4062   -1.3160    0.0000 O   0  0  0  0  0  0  0  0  0  0  0  0
    7.1358   -2.8555    0.0000 O   0  0  0  0  0  0  0  0  0  0  0  0
    4.2780   -2.0305    0.0000 C   0  0  0  0  0  0  0  0  0  0  0  0
    4.1917   -2.8510    0.0000 C   0  0  0  0  0  0  0  0  0  0  0  0
    3.3847   -3.0225    0.0000 C   0  0  0  0  0  0  0  0  0  0  0  0
    2.9722   -2.3080    0.0000 C   0  0  0  0  0  0  0  0  0  0  0  0
    2.7173   -1.5234    0.0000 H   0  0  0  0  0  0  0  0  0  0  0  0
    2.1653   -2.1365    0.0000 C   0  0  0  0  0  0  0  0  0  0  0  0
    2.4202   -2.9211    0.0000 H   0  0  0  0  0  0  0  0  0  0  0  0
    1.6132   -2.7496    0.0000 C   0  0  0  0  0  0  0  0  0  0  0  0
    0.8063   -2.5781    0.0000 C   0  0  0  0  0  0  0  0  0  0  0  0
    0.5513   -1.7935    0.0000 C   0  0  0  0  0  0  0  0  0  0  0  0
    0.2964   -1.0088    0.0000 H   0  0  0  0  0  0  0  0  0  0  0  0
   -0.2556   -1.6219    0.0000 C   0  0  0  0  0  0  0  0  0  0  0  0
   -0.5106   -0.8373    0.0000 C   0  0  0  0  0  0  0  0  0  0  0  0
   -1.3176   -0.6658    0.0000 O   0  0  0  0  0  0  0  0  0  0  0  0
    0.0414   -0.2242    0.0000 C   0  0  0  0  0  0  0  0  0  0  0  0
    0.8484   -0.3957    0.0000 C   0  0  0  0  0  0  0  0  0  0  0  0
    1.1034   -1.1804    0.0000 C   0  0  0  0  0  0  0  0  0  0  0  0
    1.6554   -0.5673    0.0000 C   0  0  0  0  0  0  0  0  0  0  0  0
    1.9103   -1.3519    0.0000 C   0  0  0  0  0  0  0  0  0  0  0  0
    1.3583   -1.9650    0.0000 H   0  0  0  0  0  0  0  0  0  0  0  0
    2.4624   -0.7388    0.0000 C   0  0  0  0  0  0  0  0  0  0  0  0
    3.2693   -0.9103    0.0000 C   0  0  0  0  0  0  0  0  0  0  0  0
    3.8214   -0.2972    0.0000 O   0  0  0  0  0  0  0  0  0  0  0  0
    3.5243   -1.6949    0.0000 C   0  0  0  0  0  0  0  0  0  0  0  0
    4.1374   -1.1429    0.0000 C   0  0  0  0  0  0  0  0  0  0  0  0
  2  1  1  6
  2  3  1  0
  3  4  1  0
  4  5  1  0
  5  6  1  0
  6  7  1  0
  7  8  1  0
  8  9  1  0
  9 10  2  0
  9 11  1  0
 11 12  1  0
  9 13  2  0
  5 14  2  0
 15  2  1  0
 15 16  1  1
 16 17  1  0
 18 17  1  0
 18 19  1  6
 18 20  1  0
 20 21  1  1
 20 22  1  0
 22 23  1  0
 24 23  1  0
 24 25  1  1
 24 26  1  0
 27 26  1  0
 27 28  1  6
 27 29  1  0
 29 30  1  0
 31 30  1  0
 31 24  1  0
 31 32  1  1
 33 31  1  0
 20 33  1  0
 33 34  1  6
 33 35  1  0
 36 35  1  0
 36 37  1  6
 38 36  1  0
 38 15  1  0
 38 18  1  0
 38 39  1  1
M  END
>  <ID>  (40) 
TN2349

>  <CAS>  (40) 
1180-95-6

>  <Formula>  (40) 
C26H44NNaO6S

>  <MolWt>  (40) 
521.68

>  <rank>  (40) 
40

>  <final_score>  (40) 
0.0000

>  <max_tc>  (40) 
0.3218

>  <best_match>  (40) 
Obeticholic acid (OCA)

>  <best_target>  (40) 
FXR

>  <physchem_compliance>  (40) 
0.0000

>  <toxic_score>  (40) 
0.2000

$$$$

     RDKit          2D

 33 37  0  0  0  0  0  0  0  0999 V2000
   -5.0013    9.8292    0.0000 N   0  0  0  0  0  0  0  0  0  0  0  0
   -4.2868    9.4167    0.0000 C   0  0  0  0  0  0  0  0  0  0  0  0
   -3.5724    9.0042    0.0000 C   0  0  0  0  0  0  0  0  0  0  0  0
   -2.8579    9.4167    0.0000 C   0  0  0  0  0  0  0  0  0  0  0  0
   -2.1434    9.0042    0.0000 C   0  0  0  0  0  0  0  0  0  0  0  0
   -2.1434    8.1792    0.0000 C   0  0  0  0  0  0  0  0  0  0  0  0
   -1.4289    7.7667    0.0000 C   0  0  0  0  0  0  0  0  0  0  0  0
   -0.7145    8.1792    0.0000 C   0  0  0  0  0  0  0  0  0  0  0  0
   -0.0000    7.7667    0.0000 C   0  0  0  0  0  0  0  0  0  0  0  0
   -0.0000    6.9417    0.0000 N   0  0  0  0  0  0  0  0  0  0  0  0
    0.7145    6.5292    0.0000 C   0  0  0  0  0  0  0  0  0  0  0  0
    0.7145    5.7042    0.0000 C   0  0  0  0  0  0  0  0  0  0  0  0
    1.4289    5.2917    0.0000 C   0  0  0  0  0  0  0  0  0  0  0  0
    1.4289    4.4667    0.0000 C   0  0  0  0  0  0  0  0  0  0  0  0
    2.1434    4.0542    0.0000 C   0  0  0  0  0  0  0  0  0  0  0  0
    2.8971    4.3898    0.0000 N   0  0  0  0  0  0  0  0  0  0  0  0
    3.4491    3.7767    0.0000 C   0  0  0  0  0  0  0  0  0  0  0  0
    4.2696    3.8629    0.0000 C   0  0  0  0  0  0  0  0  0  0  0  0
    3.0366    3.0622    0.0000 N   0  0  0  0  0  0  0  0  0  0  0  0
    2.2296    3.2337    0.0000 N   0  0  0  0  0  0  0  0  0  0  0  0
    0.7145    4.0542    0.0000 C   0  0  0  0  0  0  0  0  0  0  0  0
    0.7145    3.2292    0.0000 C   0  0  0  0  0  0  0  0  0  0  0  0
    1.2978    2.6459    0.0000 C   0  0  0  0  0  0  0  0  0  0  0  0
    0.7145    2.0625    0.0000 C   0  0  0  0  0  0  0  0  0  0  0  0
    0.1311    2.6459    0.0000 C   0  0  0  0  0  0  0  0  0  0  0  0
   -0.0000    4.4667    0.0000 C   0  0  0  0  0  0  0  0  0  0  0  0
   -0.0000    5.2917    0.0000 C   0  0  0  0  0  0  0  0  0  0  0  0
   -0.7145    5.7042    0.0000 C   0  0  0  0  0  0  0  0  0  0  0  0
    1.4289    6.9417    0.0000 O   0  0  0  0  0  0  0  0  0  0  0  0
   -0.7145    6.5292    0.0000 C   0  0  0  0  0  0  0  0  0  0  0  0
   -1.4289    6.9417    0.0000 C   0  0  0  0  0  0  0  0  0  0  0  0
   -2.8579    7.7667    0.0000 C   0  0  0  0  0  0  0  0  0  0  0  0
   -3.5724    8.1792    0.0000 C   0  0  0  0  0  0  0  0  0  0  0  0
  1  2  3  0
  2  3  1  0
  3  4  1  0
  4  5  2  0
  5  6  1  0
  6  7  1  0
  7  8  1  0
  8  9  1  0
  9 10  1  0
 10 11  1  0
 11 12  1  0
 12 13  2  0
 13 14  1  0
 14 15  1  0
 15 16  2  0
 16 17  1  0
 17 18  1  0
 17 19  2  0
 19 20  1  0
 15 20  1  0
 14 21  2  0
 21 22  1  0
 22 23  1  0
 23 24  1  0
 24 25  1  0
 22 25  1  0
 21 26  1  0
 26 27  2  0
 12 27  1  0
 27 28  1  0
 11 29  2  0
 10 30  1  0
 30 31  1  0
  7 31  1  0
  6 32  2  0
 32 33  1  0
  3 33  2  0
M  END
>  <ID>  (41) 
T15271

>  <CAS>  (41) 
1399177-37-7

>  <Formula>  (41) 
C27H29N5O

>  <MolWt>  (41) 
439.55

>  <rank>  (41) 
41

>  <final_score>  (41) 
0.0000

>  <max_tc>  (41) 
0.7612

>  <best_match>  (41) 
Denifanstat (TVB-2640)

>  <best_target>  (41) 
FASN

>  <physchem_compliance>  (41) 
0.0000

>  <toxic_score>  (41) 
0.4000

$$$$

     RDKit          2D

 31 34  0  0  1  0  0  0  0  0999 V2000
    2.8728   -3.9050    0.0000 C   0  0  0  0  0  0  0  0  0  0  0  0
    2.5619   -3.1408    0.0000 C   0  0  0  0  0  0  0  0  0  0  0  0
    1.7447   -3.0280    0.0000 C   0  0  0  0  0  0  0  0  0  0  0  0
    1.2383   -3.6793    0.0000 C   0  0  0  0  0  0  0  0  0  0  0  0
    0.4211   -3.5665    0.0000 O   0  0  0  0  0  0  0  0  0  0  0  0
    1.5492   -4.4435    0.0000 O   0  0  0  0  0  0  0  0  0  0  0  0
    3.0683   -2.4895    0.0000 C   0  0  0  0  0  0  0  0  0  0  0  0
    2.8390   -1.6970    0.0000 C   0  0  0  0  0  0  0  0  0  0  0  0
    3.5218   -1.2340    0.0000 C   0  0  0  0  0  0  0  0  0  0  0  0
    4.1731   -1.7404    0.0000 C   0  0  0  0  0  0  0  0  0  0  0  0
    4.7050   -2.3711    0.0000 H   0  0  0  0  0  0  0  0  0  0  0  0
    4.9853   -1.5952    0.0000 C   0  0  0  0  0  0  0  0  0  0  0  0
    4.4534   -0.9645    0.0000 H   0  0  0  0  0  0  0  0  0  0  0  0
    5.2655   -0.8192    0.0000 C   0  0  0  0  0  0  0  0  0  0  0  0
    4.7337   -0.1885    0.0000 O   0  0  0  0  0  0  0  0  0  0  0  0
    6.0777   -0.6740    0.0000 C   0  0  0  0  0  0  0  0  0  0  0  0
    6.6095   -1.3047    0.0000 C   0  0  0  0  0  0  0  0  0  0  0  0
    7.1413   -1.9354    0.0000 H   0  0  0  0  0  0  0  0  0  0  0  0
    7.4216   -1.1595    0.0000 C   0  0  0  0  0  0  0  0  0  0  0  0
    7.9534   -1.7902    0.0000 C   0  0  0  0  0  0  0  0  0  0  0  0
    8.7655   -1.6450    0.0000 O   0  0  0  0  0  0  0  0  0  0  0  0
    7.6731   -2.5662    0.0000 C   0  0  0  0  0  0  0  0  0  0  0  0
    6.8610   -2.7114    0.0000 C   0  0  0  0  0  0  0  0  0  0  0  0
    6.3292   -2.0807    0.0000 C   0  0  0  0  0  0  0  0  0  0  0  0
    6.0489   -2.8566    0.0000 C   0  0  0  0  0  0  0  0  0  0  0  0
    5.5171   -2.2259    0.0000 C   0  0  0  0  0  0  0  0  0  0  0  0
    5.7974   -1.4499    0.0000 H   0  0  0  0  0  0  0  0  0  0  0  0
    5.2368   -3.0018    0.0000 C   0  0  0  0  0  0  0  0  0  0  0  0
    4.4247   -3.1470    0.0000 C   0  0  0  0  0  0  0  0  0  0  0  0
    3.8928   -2.5163    0.0000 C   0  0  0  0  0  0  0  0  0  0  0  0
    3.5330   -3.2587    0.0000 C   0  0  0  0  0  0  0  0  0  0  0  0
  2  1  1  6
  2  3  1  0
  3  4  1  0
  4  5  1  0
  4  6  2  0
  7  2  1  0
  7  8  1  1
  8  9  1  0
 10  9  1  0
 10 11  1  6
 12 10  1  0
 12 13  1  1
 12 14  1  0
 14 15  1  1
 14 16  1  0
 17 16  1  0
 17 18  1  1
 17 19  1  0
 20 19  1  0
 20 21  1  6
 20 22  1  0
 22 23  1  0
 24 23  1  0
 24 17  1  0
 24 25  1  1
 26 24  1  0
 12 26  1  0
 26 27  1  6
 26 28  1  0
 28 29  1  0
 30 29  1  0
 30  7  1  0
 10 30  1  0
 30 31  1  1
M  END
>  <ID>  (42) 
T10087

>  <CAS>  (42) 
99697-24-2

>  <Formula>  (42) 
C23H38O4

>  <MolWt>  (42) 
378.55

>  <rank>  (42) 
42

>  <final_score>  (42) 
0.0000

>  <max_tc>  (42) 
0.3824

>  <best_match>  (42) 
Obeticholic acid (OCA)

>  <best_target>  (42) 
FXR

>  <physchem_compliance>  (42) 
0.0000

>  <toxic_score>  (42) 
0.8000

$$$$

     RDKit          2D

 29 32  0  0  0  0  0  0  0  0999 V2000
   -1.6119    3.9995    0.0000 C   0  0  0  0  0  0  0  0  0  0  0  0
   -1.1270    3.3320    0.0000 C   0  0  0  0  0  0  0  0  0  0  0  0
   -0.3020    3.3320    0.0000 N   0  0  0  0  0  0  0  0  0  0  0  0
   -0.0470    2.5474    0.0000 N   0  0  0  0  0  0  0  0  0  0  0  0
   -0.7145    2.0625    0.0000 C   0  0  0  0  0  0  0  0  0  0  0  0
   -1.3819    2.5474    0.0000 C   0  0  0  0  0  0  0  0  0  0  0  0
   -2.1665    2.2925    0.0000 C   0  0  0  0  0  0  0  0  0  0  0  0
   -0.7145    1.2375    0.0000 C   0  0  0  0  0  0  0  0  0  0  0  0
    0.0000    0.8250    0.0000 C   0  0  0  0  0  0  0  0  0  0  0  0
    0.0000   -0.0000    0.0000 C   0  0  0  0  0  0  0  0  0  0  0  0
    0.7145   -0.4125    0.0000 C   0  0  0  0  0  0  0  0  0  0  0  0
    1.4289   -0.0000    0.0000 O   0  0  0  0  0  0  0  0  0  0  0  0
    0.7145   -1.2375    0.0000 N   0  0  0  0  0  0  0  0  0  0  0  0
    1.2978   -1.8209    0.0000 C   0  0  0  0  0  0  0  0  0  0  0  0
    0.7145   -2.4042    0.0000 C   0  0  0  0  0  0  0  0  0  0  0  0
    0.1311   -1.8209    0.0000 C   0  0  0  0  0  0  0  0  0  0  0  0
    0.7145   -3.2292    0.0000 C   0  0  0  0  0  0  0  0  0  0  0  0
    1.4289   -3.6417    0.0000 C   0  0  0  0  0  0  0  0  0  0  0  0
    1.4289   -4.4667    0.0000 C   0  0  0  0  0  0  0  0  0  0  0  0
    0.7145   -4.8792    0.0000 C   0  0  0  0  0  0  0  0  0  0  0  0
    0.0000   -4.4667    0.0000 C   0  0  0  0  0  0  0  0  0  0  0  0
    0.0000   -3.6417    0.0000 C   0  0  0  0  0  0  0  0  0  0  0  0
    0.7145   -5.7042    0.0000 C   0  0  0  0  0  0  0  0  0  0  0  0
    0.7145   -6.5292    0.0000 N   0  0  0  0  0  0  0  0  0  0  0  0
   -0.7145   -0.4125    0.0000 C   0  0  0  0  0  0  0  0  0  0  0  0
   -0.7145   -1.2375    0.0000 C   0  0  0  0  0  0  0  0  0  0  0  0
   -1.4289   -0.0000    0.0000 C   0  0  0  0  0  0  0  0  0  0  0  0
   -1.4289    0.8250    0.0000 C   0  0  0  0  0  0  0  0  0  0  0  0
   -2.1434    1.2375    0.0000 C   0  0  0  0  0  0  0  0  0  0  0  0
  1  2  1  0
  2  3  2  0
  3  4  1  0
  4  5  1  0
  5  6  2  0
  2  6  1  0
  6  7  1  0
  5  8  1  0
  8  9  1  0
  9 10  2  0
 10 11  1  0
 11 12  2  0
 11 13  1  0
 13 14  1  0
 14 15  1  0
 15 16  1  0
 13 16  1  0
 15 17  1  0
 17 18  1  0
 18 19  2  0
 19 20  1  0
 20 21  2  0
 21 22  1  0
 17 22  2  0
 20 23  1  0
 23 24  3  0
 10 25  1  0
 25 26  1  0
 25 27  2  0
 27 28  1  0
  8 28  2  0
 28 29  1  0
M  END
>  <ID>  (43) 
T11557

>  <CAS>  (43) 
2097262-60-5

>  <Formula>  (43) 
C24H24N4O

>  <MolWt>  (43) 
384.47

>  <rank>  (43) 
43

>  <final_score>  (43) 
0.0000

>  <max_tc>  (43) 
0.5205

>  <best_match>  (43) 
Denifanstat (TVB-2640)

>  <best_target>  (43) 
FASN

>  <physchem_compliance>  (43) 
0.0000

>  <toxic_score>  (43) 
0.4000

$$$$

     RDKit          2D

 40 43  0  0  1  0  0  0  0  0999 V2000
    4.9924   -0.7930    0.0000 C   0  0  0  0  0  0  0  0  0  0  0  0
    4.9924   -1.6180    0.0000 C   0  0  0  0  0  0  0  0  0  0  0  0
    5.7069   -2.0305    0.0000 C   0  0  0  0  0  0  0  0  0  0  0  0
    6.4214   -1.6180    0.0000 C   0  0  0  0  0  0  0  0  0  0  0  0
    7.1358   -2.0305    0.0000 C   0  0  0  0  0  0  0  0  0  0  0  0
    7.8503   -1.6180    0.0000 N   0  0  0  0  0  0  0  0  0  0  0  0
    8.5648   -2.0305    0.0000 C   0  0  0  0  0  0  0  0  0  0  0  0
    9.2792   -1.6180    0.0000 C   0  0  0  0  0  0  0  0  0  0  0  0
    9.9937   -2.0305    0.0000 S   0  0  0  0  0  0  0  0  0  0  0  0
   10.7082   -2.4430    0.0000 O   0  0  0  0  0  0  0  0  0  0  0  0
   10.4062   -1.3160    0.0000 O   0  0  0  0  0  0  0  0  0  0  0  0
    9.5812   -2.7450    0.0000 O   0  0  0  0  0  0  0  0  0  0  0  0
    7.1358   -2.8555    0.0000 O   0  0  0  0  0  0  0  0  0  0  0  0
    4.2780   -2.0305    0.0000 C   0  0  0  0  0  0  0  0  0  0  0  0
    4.1917   -2.8510    0.0000 C   0  0  0  0  0  0  0  0  0  0  0  0
    3.3847   -3.0225    0.0000 C   0  0  0  0  0  0  0  0  0  0  0  0
    2.9722   -2.3080    0.0000 C   0  0  0  0  0  0  0  0  0  0  0  0
    2.7173   -1.5234    0.0000 H   0  0  0  0  0  0  0  0  0  0  0  0
    2.1653   -2.1365    0.0000 C   0  0  0  0  0  0  0  0  0  0  0  0
    2.4202   -2.9211    0.0000 H   0  0  0  0  0  0  0  0  0  0  0  0
    1.6132   -2.7496    0.0000 C   0  0  0  0  0  0  0  0  0  0  0  0
    1.8682   -3.5342    0.0000 O   0  0  0  0  0  0  0  0  0  0  0  0
    0.8063   -2.5781    0.0000 C   0  0  0  0  0  0  0  0  0  0  0  0
    0.2542   -3.1912    0.0000 C   0  0  0  0  0  0  0  0  0  0  0  0
   -0.5527   -3.0196    0.0000 C   0  0  0  0  0  0  0  0  0  0  0  0
    0.5513   -1.7935    0.0000 C   0  0  0  0  0  0  0  0  0  0  0  0
    0.2964   -1.0088    0.0000 H   0  0  0  0  0  0  0  0  0  0  0  0
   -0.2556   -1.6219    0.0000 C   0  0  0  0  0  0  0  0  0  0  0  0
   -0.5106   -0.8373    0.0000 C   0  0  0  0  0  0  0  0  0  0  0  0
   -1.3176   -0.6658    0.0000 O   0  0  0  0  0  0  0  0  0  0  0  0
    0.0414   -0.2242    0.0000 C   0  0  0  0  0  0  0  0  0  0  0  0
    0.8484   -0.3957    0.0000 C   0  0  0  0  0  0  0  0  0  0  0  0
    1.1034   -1.1804    0.0000 C   0  0  0  0  0  0  0  0  0  0  0  0
    1.6554   -0.5673    0.0000 C   0  0  0  0  0  0  0  0  0  0  0  0
    1.9103   -1.3519    0.0000 C   0  0  0  0  0  0  0  0  0  0  0  0
    1.3583   -1.9650    0.0000 H   0  0  0  0  0  0  0  0  0  0  0  0
    2.4624   -0.7388    0.0000 C   0  0  0  0  0  0  0  0  0  0  0  0
    3.2693   -0.9103    0.0000 C   0  0  0  0  0  0  0  0  0  0  0  0
    3.5243   -1.6949    0.0000 C   0  0  0  0  0  0  0  0  0  0  0  0
    4.1374   -1.1429    0.0000 C   0  0  0  0  0  0  0  0  0  0  0  0
  2  1  1  6
  2  3  1  0
  3  4  1  0
  4  5  1  0
  5  6  1  0
  6  7  1  0
  7  8  1  0
  8  9  1  0
  9 10  2  0
  9 11  1  0
  9 12  2  0
  5 13  2  0
 14  2  1  0
 14 15  1  1
 15 16  1  0
 17 16  1  0
 17 18  1  6
 19 17  1  0
 19 20  1  1
 19 21  1  0
 21 22  1  6
 21 23  1  0
 23 24  1  6
 24 25  1  0
 23 26  1  0
 26 27  1  1
 26 28  1  0
 29 28  1  0
 29 30  1  6
 29 31  1  0
 31 32  1  0
 33 32  1  0
 33 26  1  0
 33 34  1  1
 35 33  1  0
 19 35  1  0
 35 36  1  6
 35 37  1  0
 37 38  1  0
 39 38  1  0
 39 14  1  0
 17 39  1  0
 39 40  1  1
M  END
>  <ID>  (44) 
T13092

>  <CAS>  (44) 
863239-61-6

>  <Formula>  (44) 
C28H49NO6S

>  <MolWt>  (44) 
527.76

>  <rank>  (44) 
44

>  <final_score>  (44) 
0.0000

>  <max_tc>  (44) 
0.4231

>  <best_match>  (44) 
Obeticholic acid (OCA)

>  <best_target>  (44) 
FXR

>  <physchem_compliance>  (44) 
0.0000

>  <toxic_score>  (44) 
0.6000

$$$$

     RDKit          2D

 38 41  0  0  1  0  0  0  0  0999 V2000
    8.3550   -2.5302    0.0000 O   0  0  0  0  0  0  0  0  0  0  0  0
    9.0694   -2.9427    0.0000 C   0  0  0  0  0  0  0  0  0  0  0  0
    9.0694   -3.7677    0.0000 O   0  0  0  0  0  0  0  0  0  0  0  0
    9.7839   -2.5302    0.0000 C   0  0  0  0  0  0  0  0  0  0  0  0
   10.4984   -2.9427    0.0000 N   0  0  0  0  0  0  0  0  0  0  0  0
   11.2128   -2.5302    0.0000 C   0  0  0  0  0  0  0  0  0  0  0  0
   11.9273   -2.9427    0.0000 C   0  0  0  0  0  0  0  0  0  0  0  0
   12.6418   -2.5302    0.0000 C   0  0  0  0  0  0  0  0  0  0  0  0
   13.3563   -2.9427    0.0000 C   0  0  0  0  0  0  0  0  0  0  0  0
   13.3563   -3.7677    0.0000 C   0  0  0  0  0  0  0  0  0  0  0  0
   14.0707   -2.5302    0.0000 C   0  0  0  0  0  0  0  0  0  0  0  0
   14.1570   -1.7097    0.0000 C   0  0  0  0  0  0  0  0  0  0  0  0
   14.9639   -1.5382    0.0000 C   0  0  0  0  0  0  0  0  0  0  0  0
   15.3764   -2.2527    0.0000 C   0  0  0  0  0  0  0  0  0  0  0  0
   15.6314   -3.0373    0.0000 H   0  0  0  0  0  0  0  0  0  0  0  0
   16.1834   -2.4242    0.0000 C   0  0  0  0  0  0  0  0  0  0  0  0
   15.9285   -1.6396    0.0000 H   0  0  0  0  0  0  0  0  0  0  0  0
   16.7354   -1.8111    0.0000 C   0  0  0  0  0  0  0  0  0  0  0  0
   16.4805   -1.0265    0.0000 O   0  0  0  0  0  0  0  0  0  0  0  0
   17.5424   -1.9826    0.0000 C   0  0  0  0  0  0  0  0  0  0  0  0
   18.0944   -1.3695    0.0000 C   0  0  0  0  0  0  0  0  0  0  0  0
   18.9014   -1.5411    0.0000 C   0  0  0  0  0  0  0  0  0  0  0  0
   17.7974   -2.7673    0.0000 C   0  0  0  0  0  0  0  0  0  0  0  0
   18.0523   -3.5519    0.0000 H   0  0  0  0  0  0  0  0  0  0  0  0
   18.6043   -2.9388    0.0000 C   0  0  0  0  0  0  0  0  0  0  0  0
   18.8593   -3.7234    0.0000 C   0  0  0  0  0  0  0  0  0  0  0  0
   19.6662   -3.8949    0.0000 O   0  0  0  0  0  0  0  0  0  0  0  0
   18.3072   -4.3365    0.0000 C   0  0  0  0  0  0  0  0  0  0  0  0
   17.5003   -4.1650    0.0000 C   0  0  0  0  0  0  0  0  0  0  0  0
   17.2453   -3.3803    0.0000 C   0  0  0  0  0  0  0  0  0  0  0  0
   16.6933   -3.9934    0.0000 C   0  0  0  0  0  0  0  0  0  0  0  0
   16.4383   -3.2088    0.0000 C   0  0  0  0  0  0  0  0  0  0  0  0
   16.9904   -2.5957    0.0000 H   0  0  0  0  0  0  0  0  0  0  0  0
   15.8863   -3.8219    0.0000 C   0  0  0  0  0  0  0  0  0  0  0  0
   15.0793   -3.6504    0.0000 C   0  0  0  0  0  0  0  0  0  0  0  0
   14.8244   -2.8658    0.0000 C   0  0  0  0  0  0  0  0  0  0  0  0
   14.2113   -3.4178    0.0000 C   0  0  0  0  0  0  0  0  0  0  0  0
   11.2128   -1.7052    0.0000 O   0  0  0  0  0  0  0  0  0  0  0  0
  1  2  2  0
  2  3  1  0
  2  4  1  0
  4  5  1  0
  5  6  1  0
  6  7  1  0
  7  8  1  0
  9  8  1  0
  9 10  1  6
 11  9  1  0
 11 12  1  1
 12 13  1  0
 14 13  1  0
 14 15  1  6
 16 14  1  0
 16 17  1  1
 16 18  1  0
 18 19  1  6
 18 20  1  0
 20 21  1  6
 21 22  1  0
 20 23  1  0
 23 24  1  1
 23 25  1  0
 26 25  1  0
 26 27  1  6
 26 28  1  0
 28 29  1  0
 30 29  1  0
 30 23  1  0
 30 31  1  1
 32 30  1  0
 16 32  1  0
 32 33  1  6
 32 34  1  0
 34 35  1  0
 36 35  1  0
 36 11  1  0
 14 36  1  0
 36 37  1  1
  6 38  2  0
M  END
>  <ID>  (45) 
T11428

>  <CAS>  (45) 
863239-60-5

>  <Formula>  (45) 
C28H47NO5

>  <MolWt>  (45) 
477.68

>  <rank>  (45) 
45

>  <final_score>  (45) 
0.0000

>  <max_tc>  (45) 
0.4861

>  <best_match>  (45) 
Obeticholic acid (OCA)

>  <best_target>  (45) 
FXR

>  <physchem_compliance>  (45) 
0.0000

>  <toxic_score>  (45) 
0.6000

$$$$

     RDKit          2D

 29 32  0  0  0  0  0  0  0  0999 V2000
    2.7512   -1.7116    0.0000 C   0  0  0  0  0  0  0  0  0  0  0  0
    2.0367   -1.2991    0.0000 C   0  0  0  0  0  0  0  0  0  0  0  0
    1.3222   -1.7116    0.0000 C   0  0  0  0  0  0  0  0  0  0  0  0
    0.6078   -1.2991    0.0000 C   0  0  0  0  0  0  0  0  0  0  0  0
    0.6078   -0.4741    0.0000 C   0  0  0  0  0  0  0  0  0  0  0  0
    1.3222   -0.0616    0.0000 C   0  0  0  0  0  0  0  0  0  0  0  0
    2.0367   -0.4741    0.0000 C   0  0  0  0  0  0  0  0  0  0  0  0
   -0.1067   -1.7116    0.0000 C   0  0  0  0  0  0  0  0  0  0  0  0
    1.3222   -2.5366    0.0000 O   0  0  0  0  0  0  0  0  0  0  0  0
    2.0367   -2.9491    0.0000 C   0  0  0  0  0  0  0  0  0  0  0  0
    2.0367   -3.7741    0.0000 C   0  0  0  0  0  0  0  0  0  0  0  0
    2.7041   -4.2590    0.0000 C   0  0  0  0  0  0  0  0  0  0  0  0
    2.4492   -5.0437    0.0000 C   0  0  0  0  0  0  0  0  0  0  0  0
    1.6242   -5.0437    0.0000 N   0  0  0  0  0  0  0  0  0  0  0  0
    1.3693   -4.2590    0.0000 O   0  0  0  0  0  0  0  0  0  0  0  0
    2.9341   -5.7111    0.0000 C   0  0  0  0  0  0  0  0  0  0  0  0
    3.7546   -5.6249    0.0000 O   0  0  0  0  0  0  0  0  0  0  0  0
    2.5986   -6.4648    0.0000 N   0  0  0  0  0  0  0  0  0  0  0  0
    3.0835   -7.1322    0.0000 C   0  0  0  0  0  0  0  0  0  0  0  0
    2.7479   -7.8859    0.0000 C   0  0  0  0  0  0  0  0  0  0  0  0
    1.9275   -7.9721    0.0000 C   0  0  0  0  0  0  0  0  0  0  0  0
    1.4425   -7.3047    0.0000 C   0  0  0  0  0  0  0  0  0  0  0  0
    1.7781   -6.5510    0.0000 C   0  0  0  0  0  0  0  0  0  0  0  0
    1.5919   -8.7258    0.0000 C   0  0  0  0  0  0  0  0  0  0  0  0
    2.0768   -9.3932    0.0000 C   0  0  0  0  0  0  0  0  0  0  0  0
    1.7413  -10.1469    0.0000 C   0  0  0  0  0  0  0  0  0  0  0  0
    0.9208  -10.2331    0.0000 N   0  0  0  0  0  0  0  0  0  0  0  0
    0.4359   -9.5657    0.0000 C   0  0  0  0  0  0  0  0  0  0  0  0
    0.7714   -8.8120    0.0000 C   0  0  0  0  0  0  0  0  0  0  0  0
  1  2  1  0
  2  3  2  0
  3  4  1  0
  4  5  2  0
  5  6  1  0
  6  7  2  0
  2  7  1  0
  4  8  1  0
  3  9  1  0
  9 10  1  0
 10 11  1  0
 11 12  2  0
 12 13  1  0
 13 14  2  0
 14 15  1  0
 11 15  1  0
 13 16  1  0
 16 17  2  0
 16 18  1  0
 18 19  1  0
 19 20  1  0
 20 21  1  0
 21 22  1  0
 22 23  1  0
 18 23  1  0
 21 24  1  0
 24 25  1  0
 25 26  2  0
 26 27  1  0
 27 28  2  0
 28 29  1  0
 24 29  2  0
M  END
>  <ID>  (46) 
T10953

>  <CAS>  (46) 
1065506-69-5

>  <Formula>  (46) 
C23H25N3O3

>  <MolWt>  (46) 
391.46

>  <rank>  (46) 
46

>  <final_score>  (46) 
0.0000

>  <max_tc>  (46) 
0.3059

>  <best_match>  (46) 
Denifanstat (TVB-2640)

>  <best_target>  (46) 
FASN

>  <physchem_compliance>  (46) 
0.0000

>  <toxic_score>  (46) 
0.6000

$$$$

     RDKit          2D

 29 32  0  0  0  0  0  0  0  0999 V2000
    3.5724    1.2375    0.0000 C   0  0  0  0  0  0  0  0  0  0  0  0
    2.8579    0.8250    0.0000 C   0  0  0  0  0  0  0  0  0  0  0  0
    2.8579   -0.0000    0.0000 C   0  0  0  0  0  0  0  0  0  0  0  0
    2.1434   -0.4125    0.0000 C   0  0  0  0  0  0  0  0  0  0  0  0
    2.1434   -1.2375    0.0000 C   0  0  0  0  0  0  0  0  0  0  0  0
    1.4289   -0.0000    0.0000 C   0  0  0  0  0  0  0  0  0  0  0  0
    0.7145   -0.4125    0.0000 C   0  0  0  0  0  0  0  0  0  0  0  0
    0.0000   -0.0000    0.0000 O   0  0  0  0  0  0  0  0  0  0  0  0
    0.7145   -1.2375    0.0000 N   0  0  0  0  0  0  0  0  0  0  0  0
    1.2978   -1.8209    0.0000 C   0  0  0  0  0  0  0  0  0  0  0  0
    0.7145   -2.4042    0.0000 C   0  0  0  0  0  0  0  0  0  0  0  0
    0.7145   -3.2292    0.0000 C   0  0  0  0  0  0  0  0  0  0  0  0
    1.4289   -3.6417    0.0000 C   0  0  0  0  0  0  0  0  0  0  0  0
    1.4289   -4.4667    0.0000 C   0  0  0  0  0  0  0  0  0  0  0  0
    0.7145   -4.8792    0.0000 C   0  0  0  0  0  0  0  0  0  0  0  0
    0.7145   -5.7042    0.0000 C   0  0  0  0  0  0  0  0  0  0  0  0
    0.7145   -6.5292    0.0000 N   0  0  0  0  0  0  0  0  0  0  0  0
    0.0000   -4.4667    0.0000 C   0  0  0  0  0  0  0  0  0  0  0  0
    0.0000   -3.6417    0.0000 C   0  0  0  0  0  0  0  0  0  0  0  0
    0.1311   -1.8209    0.0000 C   0  0  0  0  0  0  0  0  0  0  0  0
    1.4289    0.8250    0.0000 C   0  0  0  0  0  0  0  0  0  0  0  0
    2.1434    1.2375    0.0000 C   0  0  0  0  0  0  0  0  0  0  0  0
    2.1434    2.0625    0.0000 C   0  0  0  0  0  0  0  0  0  0  0  0
    1.4760    2.5474    0.0000 N   0  0  0  0  0  0  0  0  0  0  0  0
    1.7309    3.3320    0.0000 N   0  0  0  0  0  0  0  0  0  0  0  0
    2.5559    3.3320    0.0000 C   0  0  0  0  0  0  0  0  0  0  0  0
    3.0408    3.9995    0.0000 C   0  0  0  0  0  0  0  0  0  0  0  0
    2.8109    2.5474    0.0000 C   0  0  0  0  0  0  0  0  0  0  0  0
    3.5955    2.2925    0.0000 C   0  0  0  0  0  0  0  0  0  0  0  0
  1  2  1  0
  2  3  1  0
  3  4  2  0
  4  5  1  0
  4  6  1  0
  6  7  1  0
  7  8  2  0
  7  9  1  0
  9 10  1  0
 10 11  1  0
 11 12  1  0
 12 13  1  0
 13 14  2  0
 14 15  1  0
 15 16  1  0
 16 17  3  0
 15 18  2  0
 18 19  1  0
 12 19  2  0
 11 20  1  0
  9 20  1  0
  6 21  2  0
 21 22  1  0
  2 22  2  0
 22 23  1  0
 23 24  2  0
 24 25  1  0
 25 26  1  0
 26 27  1  0
 26 28  2  0
 23 28  1  0
 28 29  1  0
M  END
>  <ID>  (47) 
T17180

>  <CAS>  (47) 
1533438-83-3

>  <Formula>  (47) 
C24H24N4O

>  <MolWt>  (47) 
384.47

>  <rank>  (47) 
47

>  <final_score>  (47) 
0.0000

>  <max_tc>  (47) 
0.5205

>  <best_match>  (47) 
Denifanstat (TVB-2640)

>  <best_target>  (47) 
FASN

>  <physchem_compliance>  (47) 
0.0000

>  <toxic_score>  (47) 
0.4000

$$$$

     RDKit          2D

 34 37  0  0  0  0  0  0  0  0999 V2000
   -2.1434    1.2375    0.0000 C   0  0  0  0  0  0  0  0  0  0  0  0
   -1.4289    0.8250    0.0000 C   0  0  0  0  0  0  0  0  0  0  0  0
   -0.7145    1.2375    0.0000 C   0  0  0  0  0  0  0  0  0  0  0  0
    0.0000    0.8250    0.0000 C   0  0  0  0  0  0  0  0  0  0  0  0
    0.0000    0.0000    0.0000 C   0  0  0  0  0  0  0  0  0  0  0  0
   -0.7145   -0.4125    0.0000 C   0  0  0  0  0  0  0  0  0  0  0  0
   -0.7145   -1.2375    0.0000 C   0  0  0  0  0  0  0  0  0  0  0  0
   -1.4289    0.0000    0.0000 C   0  0  0  0  0  0  0  0  0  0  0  0
    0.7145   -0.4125    0.0000 C   0  0  0  0  0  0  0  0  0  0  0  0
    0.7145   -1.2375    0.0000 N   0  0  0  0  0  0  0  0  0  0  0  0
    1.2978   -1.8209    0.0000 C   0  0  0  0  0  0  0  0  0  0  0  0
    0.7145   -2.4042    0.0000 C   0  0  0  0  0  0  0  0  0  0  0  0
    0.1311   -1.8209    0.0000 C   0  0  0  0  0  0  0  0  0  0  0  0
    0.7145   -3.2292    0.0000 C   0  0  0  0  0  0  0  0  0  0  0  0
    1.4289   -3.6417    0.0000 C   0  0  0  0  0  0  0  0  0  0  0  0
    1.4289   -4.4667    0.0000 C   0  0  0  0  0  0  0  0  0  0  0  0
    0.7145   -4.8792    0.0000 C   0  0  0  0  0  0  0  0  0  0  0  0
    0.0000   -4.4667    0.0000 C   0  0  0  0  0  0  0  0  0  0  0  0
    0.0000   -3.6417    0.0000 C   0  0  0  0  0  0  0  0  0  0  0  0
    0.7145   -5.7042    0.0000 C   0  0  0  0  0  0  0  0  0  0  0  0
    0.7145   -6.5292    0.0000 N   0  0  0  0  0  0  0  0  0  0  0  0
    1.4289   -0.0000    0.0000 O   0  0  0  0  0  0  0  0  0  0  0  0
   -0.7145    2.0625    0.0000 C   0  0  0  0  0  0  0  0  0  0  0  0
   -1.3819    2.5474    0.0000 C   0  0  0  0  0  0  0  0  0  0  0  0
   -1.1270    3.3320    0.0000 N   0  0  0  0  0  0  0  0  0  0  0  0
   -0.3020    3.3320    0.0000 C   0  0  0  0  0  0  0  0  0  0  0  0
   -0.0470    2.5474    0.0000 N   0  0  0  0  0  0  0  0  0  0  0  0
    0.1830    3.9995    0.0000 C   0  0  0  0  0  0  0  0  0  0  0  0
    0.6679    4.6669    0.0000 F   0  0  0  0  0  0  0  0  0  0  0  0
    0.8504    3.5146    0.0000 F   0  0  0  0  0  0  0  0  0  0  0  0
   -0.4845    4.4844    0.0000 F   0  0  0  0  0  0  0  0  0  0  0  0
   -2.1665    2.2925    0.0000 C   0  0  0  0  0  0  0  0  0  0  0  0
   -2.7796    2.8445    0.0000 O   0  0  0  0  0  0  0  0  0  0  0  0
   -2.6081    3.6515    0.0000 C   0  0  0  0  0  0  0  0  0  0  0  0
  1  2  1  0
  2  3  2  0
  3  4  1  0
  4  5  2  0
  5  6  1  0
  6  7  1  0
  6  8  2  0
  2  8  1  0
  5  9  1  0
  9 10  1  0
 10 11  1  0
 11 12  1  0
 12 13  1  0
 10 13  1  0
 12 14  1  0
 14 15  1  0
 15 16  2  0
 16 17  1  0
 17 18  2  0
 18 19  1  0
 14 19  2  0
 17 20  1  0
 20 21  3  0
  9 22  2  0
  3 23  1  0
 23 24  2  0
 24 25  1  0
 25 26  2  0
 26 27  1  0
 23 27  1  0
 26 28  1  0
 28 29  1  0
 28 30  1  0
 28 31  1  0
 24 32  1  0
 32 33  1  0
 33 34  1  0
M  END
>  <ID>  (48) 
T17181

>  <CAS>  (48) 
2097262-58-1

>  <Formula>  (48) 
C25H23F3N4O2

>  <MolWt>  (48) 
468.47

>  <rank>  (48) 
48

>  <final_score>  (48) 
0.0000

>  <max_tc>  (48) 
0.4353

>  <best_match>  (48) 
Denifanstat (TVB-2640)

>  <best_target>  (48) 
FASN

>  <physchem_compliance>  (48) 
0.0000

>  <toxic_score>  (48) 
0.8000

$$$$

     RDKit          2D

 32 33  0  0  0  0  0  0  0  0999 V2000
   -0.7145   -4.5375    0.0000 C   0  0  0  0  0  0  0  0  0  0  0  0
    0.0000   -4.9500    0.0000 C   0  0  0  0  0  0  0  0  0  0  0  0
   -0.4125   -5.6645    0.0000 C   0  0  0  0  0  0  0  0  0  0  0  0
    0.4125   -4.2355    0.0000 C   0  0  0  0  0  0  0  0  0  0  0  0
    0.7145   -5.3625    0.0000 C   0  0  0  0  0  0  0  0  0  0  0  0
    1.4289   -4.9500    0.0000 C   0  0  0  0  0  0  0  0  0  0  0  0
    2.1434   -5.3625    0.0000 C   0  0  0  0  0  0  0  0  0  0  0  0
    0.7145   -6.1875    0.0000 C   0  0  0  0  0  0  0  0  0  0  0  0
    1.4289   -6.6000    0.0000 C   0  0  0  0  0  0  0  0  0  0  0  0
    2.1434   -6.1875    0.0000 C   0  0  0  0  0  0  0  0  0  0  0  0
    2.8579   -6.6000    0.0000 O   0  0  0  0  0  0  0  0  0  0  0  0
    3.5724   -6.1875    0.0000 C   0  0  0  0  0  0  0  0  0  0  0  0
    4.2868   -6.6000    0.0000 C   0  0  0  0  0  0  0  0  0  0  0  0
    5.0013   -6.1875    0.0000 N   0  0  0  0  0  0  0  0  0  0  0  0
    5.7158   -6.6000    0.0000 C   0  0  0  0  0  0  0  0  0  0  0  0
    6.4302   -6.1875    0.0000 C   0  0  0  0  0  0  0  0  0  0  0  0
    7.1447   -6.6000    0.0000 N   0  0  0  0  0  0  0  0  0  0  0  0
    7.8592   -6.1875    0.0000 C   0  0  0  0  0  0  0  0  0  0  0  0
    8.5737   -6.6000    0.0000 C   0  0  0  0  0  0  0  0  0  0  0  0
    9.2881   -6.1875    0.0000 O   0  0  0  0  0  0  0  0  0  0  0  0
   10.0026   -6.6000    0.0000 C   0  0  0  0  0  0  0  0  0  0  0  0
   10.7171   -6.1875    0.0000 C   0  0  0  0  0  0  0  0  0  0  0  0
   11.4315   -6.6000    0.0000 C   0  0  0  0  0  0  0  0  0  0  0  0
   11.4315   -7.4250    0.0000 C   0  0  0  0  0  0  0  0  0  0  0  0
   12.1460   -7.8375    0.0000 C   0  0  0  0  0  0  0  0  0  0  0  0
   12.8605   -8.2500    0.0000 C   0  0  0  0  0  0  0  0  0  0  0  0
   11.7335   -8.5520    0.0000 C   0  0  0  0  0  0  0  0  0  0  0  0
   12.5585   -7.1230    0.0000 C   0  0  0  0  0  0  0  0  0  0  0  0
   10.7171   -7.8375    0.0000 C   0  0  0  0  0  0  0  0  0  0  0  0
   10.0026   -7.4250    0.0000 C   0  0  0  0  0  0  0  0  0  0  0  0
    7.8592   -5.3625    0.0000 O   0  0  0  0  0  0  0  0  0  0  0  0
    4.2868   -7.4250    0.0000 O   0  0  0  0  0  0  0  0  0  0  0  0
  1  2  1  0
  2  3  1  0
  2  4  1  0
  2  5  1  0
  5  6  1  0
  6  7  2  0
  5  8  2  0
  8  9  1  0
  9 10  2  0
  7 10  1  0
 10 11  1  0
 11 12  1  0
 12 13  1  0
 13 14  1  0
 14 15  1  0
 15 16  1  0
 16 17  1  0
 17 18  1  0
 18 19  1  0
 19 20  1  0
 20 21  1  0
 21 22  1  0
 22 23  2  0
 23 24  1  0
 24 25  1  0
 25 26  1  0
 25 27  1  0
 25 28  1  0
 24 29  2  0
 29 30  1  0
 21 30  2  0
 18 31  2  0
 13 32  2  0
M  END
>  <ID>  (49) 
T12220

>  <CAS>  (49) 
494830-67-0

>  <Formula>  (49) 
C26H36N2O4

>  <MolWt>  (49) 
440.58

>  <rank>  (49) 
49

>  <final_score>  (49) 
0.0000

>  <max_tc>  (49) 
0.3800

>  <best_match>  (49) 
BI-1467335

>  <best_target>  (49) 
AOC3/VAP-1

>  <physchem_compliance>  (49) 
0.0000

>  <toxic_score>  (49) 
0.4000

$$$$

     RDKit          2D

 28 31  0  0  1  0  0  0  0  0999 V2000
    7.2589   -3.9422    0.0000 N   0  0  0  0  0  0  0  0  0  0  0  0
    7.2589   -3.1172    0.0000 C   0  0  0  0  0  0  0  0  0  0  0  0
    6.5444   -2.7047    0.0000 C   0  0  0  0  0  0  0  0  0  0  0  0
    5.7598   -2.9597    0.0000 N   0  0  0  0  0  0  0  0  0  0  0  0
    5.2749   -2.2922    0.0000 C   0  0  0  0  0  0  0  0  0  0  0  0
    5.7598   -1.6248    0.0000 N   0  0  0  0  0  0  0  0  0  0  0  0
    5.5048   -0.8402    0.0000 C   0  0  0  0  0  0  0  0  0  0  0  0
    4.6979   -0.6686    0.0000 C   0  0  0  0  0  0  0  0  0  0  0  0
    4.4429    0.1160    0.0000 O   0  0  0  0  0  0  0  0  0  0  0  0
    3.6360    0.2875    0.0000 C   0  0  0  0  0  0  0  0  0  0  0  0
    3.3810    1.0721    0.0000 P   0  0  0  0  0  0  0  0  0  0  0  0
    2.8731    1.7222    0.0000 O   0  0  0  0  0  0  0  0  0  0  0  0
    3.1821    2.4872    0.0000 C   0  0  0  0  0  0  0  0  0  0  0  0
    3.9991    2.6020    0.0000 C   0  0  0  0  0  0  0  0  0  0  0  0
    4.1980    1.1870    0.0000 O   0  0  0  0  0  0  0  0  0  0  0  0
    4.5070    1.9519    0.0000 C   0  0  0  0  0  0  0  0  0  0  0  0
    5.3240    2.0667    0.0000 C   0  0  0  0  0  0  0  0  0  0  0  0
    5.6331    2.8316    0.0000 C   0  0  0  0  0  0  0  0  0  0  0  0
    6.4500    2.9464    0.0000 C   0  0  0  0  0  0  0  0  0  0  0  0
    6.9579    2.2963    0.0000 C   0  0  0  0  0  0  0  0  0  0  0  0
    6.6489    1.5314    0.0000 C   0  0  0  0  0  0  0  0  0  0  0  0
    7.1568    0.8813    0.0000 Cl  0  0  0  0  0  0  0  0  0  0  0  0
    5.8319    1.4166    0.0000 C   0  0  0  0  0  0  0  0  0  0  0  0
    2.6526    0.6848    0.0000 O   0  0  0  0  0  0  0  0  0  0  0  0
    6.5444   -1.8797    0.0000 C   0  0  0  0  0  0  0  0  0  0  0  0
    7.2589   -1.4672    0.0000 N   0  0  0  0  0  0  0  0  0  0  0  0
    7.9733   -1.8797    0.0000 C   0  0  0  0  0  0  0  0  0  0  0  0
    7.9733   -2.7047    0.0000 N   0  0  0  0  0  0  0  0  0  0  0  0
  1  2  1  0
  2  3  2  0
  3  4  1  0
  4  5  2  0
  5  6  1  0
  6  7  1  0
  7  8  1  0
  8  9  1  0
  9 10  1  0
 11 10  1  1
 11 12  1  0
 12 13  1  0
 13 14  1  0
 11 15  1  0
 16 15  1  0
 16 14  1  0
 16 17  1  1
 17 18  2  0
 18 19  1  0
 19 20  2  0
 20 21  1  0
 21 22  1  0
 21 23  2  0
 17 23  1  0
 11 24  2  0
  6 25  1  0
  3 25  1  0
 25 26  2  0
 26 27  1  0
 27 28  2  0
  2 28  1  0
M  END
>  <ID>  (50) 
T19526

>  <CAS>  (50) 
625095-61-6

>  <Formula>  (50) 
C18H23ClN5O7PS

>  <MolWt>  (50) 
519.9

>  <rank>  (50) 
50

>  <final_score>  (50) 
0.0000

>  <max_tc>  (50) 
0.4111

>  <best_match>  (50) 
VK2809

>  <best_target>  (50) 
THR-beta

>  <physchem_compliance>  (50) 
0.0000

>  <toxic_score>  (50) 
0.4000

$$$$

     RDKit          2D

 29 32  0  0  1  0  0  0  0  0999 V2000
    0.7294   -1.2034    0.0000 C   0  0  0  0  0  0  0  0  0  0  0  0
    0.4185   -1.9676    0.0000 C   0  0  0  0  0  0  0  0  0  0  0  0
   -0.3987   -2.0804    0.0000 C   0  0  0  0  0  0  0  0  0  0  0  0
   -0.9051   -1.4291    0.0000 C   0  0  0  0  0  0  0  0  0  0  0  0
   -1.7223   -1.5419    0.0000 C   0  0  0  0  0  0  0  0  0  0  0  0
   -2.2287   -0.8906    0.0000 O   0  0  0  0  0  0  0  0  0  0  0  0
   -2.0332   -2.3061    0.0000 O   0  0  0  0  0  0  0  0  0  0  0  0
    0.9249   -2.6189    0.0000 C   0  0  0  0  0  0  0  0  0  0  0  0
    0.6955   -3.4114    0.0000 C   0  0  0  0  0  0  0  0  0  0  0  0
    1.3784   -3.8744    0.0000 C   0  0  0  0  0  0  0  0  0  0  0  0
    2.0297   -3.3680    0.0000 C   0  0  0  0  0  0  0  0  0  0  0  0
    2.8418   -3.5132    0.0000 C   0  0  0  0  0  0  0  0  0  0  0  0
    3.3737   -2.8825    0.0000 C   0  0  0  0  0  0  0  0  0  0  0  0
    3.0934   -2.1066    0.0000 C   0  0  0  0  0  0  0  0  0  0  0  0
    4.1858   -3.0277    0.0000 C   0  0  0  0  0  0  0  0  0  0  0  0
    3.9055   -2.2518    0.0000 C   0  0  0  0  0  0  0  0  0  0  0  0
    4.7176   -2.3970    0.0000 C   0  0  0  0  0  0  0  0  0  0  0  0
    5.5297   -2.5422    0.0000 C   0  0  0  0  0  0  0  0  0  0  0  0
    5.8100   -3.3182    0.0000 C   0  0  0  0  0  0  0  0  0  0  0  0
    5.2782   -3.9489    0.0000 C   0  0  0  0  0  0  0  0  0  0  0  0
    6.6221   -3.4634    0.0000 O   0  0  0  0  0  0  0  0  0  0  0  0
    4.4661   -3.8037    0.0000 C   0  0  0  0  0  0  0  0  0  0  0  0
    3.9343   -4.4344    0.0000 C   0  0  0  0  0  0  0  0  0  0  0  0
    3.1221   -4.2891    0.0000 C   0  0  0  0  0  0  0  0  0  0  0  0
    2.5903   -4.9199    0.0000 O   0  0  0  0  0  0  0  0  0  0  0  0
    1.7494   -2.5921    0.0000 C   0  0  0  0  0  0  0  0  0  0  0  0
    1.3895   -1.8497    0.0000 C   0  0  0  0  0  0  0  0  0  0  0  0
    2.2812   -1.9614    0.0000 C   0  0  0  0  0  0  0  0  0  0  0  0
    2.0009   -1.1854    0.0000 O   0  0  0  0  0  0  0  0  0  0  0  0
  2  1  1  1
  2  3  1  0
  3  4  1  0
  4  5  1  0
  5  6  1  0
  5  7  2  0
  8  2  1  0
  8  9  1  6
  9 10  1  0
 11 10  1  6
 12 11  1  0
 12 13  1  0
 13 14  1  6
 13 15  1  0
 15 16  1  6
 15 17  1  0
 17 18  1  0
 19 18  1  0
 19 20  1  0
 19 21  1  1
 15 22  1  0
 22 20  1  6
 22 23  1  0
 12 24  1  1
 24 23  1  0
 24 25  1  1
 26  8  1  0
 11 26  1  0
 26 27  1  6
 26 28  1  0
 28 14  1  0
 28 29  1  1
M  END
>  <ID>  (51) 
T19189

>  <CAS>  (51) 
2464-18-8

>  <Formula>  (51) 
C24H40O5

>  <MolWt>  (51) 
408.57

>  <rank>  (51) 
51

>  <final_score>  (51) 
0.0000

>  <max_tc>  (51) 
0.6866

>  <best_match>  (51) 
Aramchol

>  <best_target>  (51) 
SCD1

>  <physchem_compliance>  (51) 
0.0000

>  <toxic_score>  (51) 
0.8000

$$$$

     RDKit          2D

 28 31  0  0  1  0  0  0  0  0999 V2000
    0.7294   -1.2034    0.0000 C   0  0  0  0  0  0  0  0  0  0  0  0
    0.4185   -1.9676    0.0000 C   0  0  0  0  0  0  0  0  0  0  0  0
   -0.3987   -2.0804    0.0000 C   0  0  0  0  0  0  0  0  0  0  0  0
   -0.9051   -1.4291    0.0000 C   0  0  0  0  0  0  0  0  0  0  0  0
   -1.7223   -1.5419    0.0000 C   0  0  0  0  0  0  0  0  0  0  0  0
   -2.2287   -0.8906    0.0000 O   0  0  0  0  0  0  0  0  0  0  0  0
   -2.0332   -2.3061    0.0000 O   0  0  0  0  0  0  0  0  0  0  0  0
    0.9249   -2.6189    0.0000 C   0  0  0  0  0  0  0  0  0  0  0  0
    0.6955   -3.4114    0.0000 C   0  0  0  0  0  0  0  0  0  0  0  0
    1.3784   -3.8744    0.0000 C   0  0  0  0  0  0  0  0  0  0  0  0
    2.0297   -3.3680    0.0000 C   0  0  0  0  0  0  0  0  0  0  0  0
    2.8418   -3.5132    0.0000 C   0  0  0  0  0  0  0  0  0  0  0  0
    3.1221   -4.2891    0.0000 C   0  0  0  0  0  0  0  0  0  0  0  0
    3.9343   -4.4344    0.0000 C   0  0  0  0  0  0  0  0  0  0  0  0
    3.3737   -2.8825    0.0000 C   0  0  0  0  0  0  0  0  0  0  0  0
    3.0934   -2.1066    0.0000 C   0  0  0  0  0  0  0  0  0  0  0  0
    4.1858   -3.0277    0.0000 C   0  0  0  0  0  0  0  0  0  0  0  0
    3.9055   -2.2518    0.0000 C   0  0  0  0  0  0  0  0  0  0  0  0
    4.7176   -2.3970    0.0000 C   0  0  0  0  0  0  0  0  0  0  0  0
    5.5297   -2.5422    0.0000 C   0  0  0  0  0  0  0  0  0  0  0  0
    4.4661   -3.8037    0.0000 C   0  0  0  0  0  0  0  0  0  0  0  0
    5.2782   -3.9489    0.0000 C   0  0  0  0  0  0  0  0  0  0  0  0
    5.8100   -3.3182    0.0000 C   0  0  0  0  0  0  0  0  0  0  0  0
    6.6221   -3.4634    0.0000 O   0  0  0  0  0  0  0  0  0  0  0  0
    1.7494   -2.5921    0.0000 C   0  0  0  0  0  0  0  0  0  0  0  0
    1.3895   -1.8497    0.0000 C   0  0  0  0  0  0  0  0  0  0  0  0
    2.2812   -1.9614    0.0000 C   0  0  0  0  0  0  0  0  0  0  0  0
    2.0009   -1.1854    0.0000 O   0  0  0  0  0  0  0  0  0  0  0  0
  2  1  1  1
  2  3  1  0
  3  4  1  0
  4  5  1  0
  5  6  1  0
  5  7  2  0
  8  2  1  0
  8  9  1  6
  9 10  1  0
 11 10  1  6
 11 12  1  0
 12 13  1  1
 13 14  1  0
 12 15  1  0
 15 16  1  6
 15 17  1  0
 17 18  1  6
 17 19  1  0
 19 20  1  0
 17 21  1  0
 21 14  1  1
 21 22  1  0
 23 22  1  0
 23 20  1  0
 23 24  1  1
  8 25  1  0
 25 11  1  0
 25 26  1  6
 25 27  1  0
 16 27  1  0
 27 28  2  0
M  END
>  <ID>  (52) 
T14002

>  <CAS>  (52) 
5130-29-0

>  <Formula>  (52) 
C24H38O4

>  <MolWt>  (52) 
390.56

>  <rank>  (52) 
52

>  <final_score>  (52) 
0.0000

>  <max_tc>  (52) 
0.4925

>  <best_match>  (52) 
Obeticholic acid (OCA)

>  <best_target>  (52) 
FXR

>  <physchem_compliance>  (52) 
0.0000

>  <toxic_score>  (52) 
0.8000

$$$$

     RDKit          2D

 27 30  0  0  1  0  0  0  0  0999 V2000
    2.8728   -3.9050    0.0000 C   0  0  0  0  0  0  0  0  0  0  0  0
    2.5619   -3.1408    0.0000 C   0  0  0  0  0  0  0  0  0  0  0  0
    1.7447   -3.0280    0.0000 C   0  0  0  0  0  0  0  0  0  0  0  0
    1.2383   -3.6793    0.0000 C   0  0  0  0  0  0  0  0  0  0  0  0
    0.4211   -3.5665    0.0000 C   0  0  0  0  0  0  0  0  0  0  0  0
   -0.0853   -4.2178    0.0000 O   0  0  0  0  0  0  0  0  0  0  0  0
    0.1102   -2.8023    0.0000 O   0  0  0  0  0  0  0  0  0  0  0  0
    3.0683   -2.4895    0.0000 C   0  0  0  0  0  0  0  0  0  0  0  0
    2.8390   -1.6970    0.0000 C   0  0  0  0  0  0  0  0  0  0  0  0
    3.5218   -1.2340    0.0000 C   0  0  0  0  0  0  0  0  0  0  0  0
    4.1731   -1.7404    0.0000 C   0  0  0  0  0  0  0  0  0  0  0  0
    4.9853   -1.5952    0.0000 C   0  0  0  0  0  0  0  0  0  0  0  0
    5.2655   -0.8192    0.0000 C   0  0  0  0  0  0  0  0  0  0  0  0
    6.0777   -0.6740    0.0000 C   0  0  0  0  0  0  0  0  0  0  0  0
    6.6095   -1.3047    0.0000 C   0  0  0  0  0  0  0  0  0  0  0  0
    7.4216   -1.1595    0.0000 C   0  0  0  0  0  0  0  0  0  0  0  0
    7.9534   -1.7902    0.0000 C   0  0  0  0  0  0  0  0  0  0  0  0
    8.7655   -1.6450    0.0000 O   0  0  0  0  0  0  0  0  0  0  0  0
    7.6731   -2.5662    0.0000 C   0  0  0  0  0  0  0  0  0  0  0  0
    6.8610   -2.7114    0.0000 C   0  0  0  0  0  0  0  0  0  0  0  0
    6.3292   -2.0807    0.0000 C   0  0  0  0  0  0  0  0  0  0  0  0
    6.0489   -2.8566    0.0000 C   0  0  0  0  0  0  0  0  0  0  0  0
    5.5171   -2.2259    0.0000 C   0  0  0  0  0  0  0  0  0  0  0  0
    5.2368   -3.0018    0.0000 C   0  0  0  0  0  0  0  0  0  0  0  0
    4.4247   -3.1470    0.0000 C   0  0  0  0  0  0  0  0  0  0  0  0
    3.8928   -2.5163    0.0000 C   0  0  0  0  0  0  0  0  0  0  0  0
    3.5330   -3.2587    0.0000 C   0  0  0  0  0  0  0  0  0  0  0  0
  2  1  1  6
  2  3  1  0
  3  4  1  0
  4  5  1  0
  5  6  1  0
  5  7  2  0
  8  2  1  0
  8  9  1  1
  9 10  1  0
 11 10  1  1
 11 12  1  0
 12 13  1  6
 13 14  1  0
 15 14  1  6
 15 16  1  0
 16 17  1  0
 17 18  2  0
 17 19  1  0
 19 20  1  0
 21 20  1  0
 21 15  1  0
 21 22  1  1
 23 21  1  0
 12 23  1  0
 23 24  1  1
 24 25  1  0
 26 25  1  0
  8 26  1  0
 26 11  1  0
 26 27  1  1
M  END
>  <ID>  (53) 
T13502

>  <CAS>  (53) 
1553-56-6

>  <Formula>  (53) 
C24H38O3

>  <MolWt>  (53) 
374.56

>  <rank>  (53) 
53

>  <final_score>  (53) 
0.0000

>  <max_tc>  (53) 
0.4697

>  <best_match>  (53) 
Obeticholic acid (OCA)

>  <best_target>  (53) 
FXR

>  <physchem_compliance>  (53) 
0.0000

>  <toxic_score>  (53) 
0.6000

$$$$

     RDKit          2D

 28 31  0  0  1  0  0  0  0  0999 V2000
    0.7294   -1.2034    0.0000 C   0  0  0  0  0  0  0  0  0  0  0  0
    0.4185   -1.9676    0.0000 C   0  0  0  0  0  0  0  0  0  0  0  0
   -0.3987   -2.0804    0.0000 C   0  0  0  0  0  0  0  0  0  0  0  0
   -0.9051   -1.4291    0.0000 C   0  0  0  0  0  0  0  0  0  0  0  0
   -1.7223   -1.5419    0.0000 C   0  0  0  0  0  0  0  0  0  0  0  0
   -2.2287   -0.8906    0.0000 O   0  0  0  0  0  0  0  0  0  0  0  0
   -2.0332   -2.3061    0.0000 O   0  0  0  0  0  0  0  0  0  0  0  0
    0.9249   -2.6189    0.0000 C   0  0  0  0  0  0  0  0  0  0  0  0
    0.6955   -3.4114    0.0000 C   0  0  0  0  0  0  0  0  0  0  0  0
    1.3784   -3.8744    0.0000 C   0  0  0  0  0  0  0  0  0  0  0  0
    1.7494   -2.5921    0.0000 C   0  0  0  0  0  0  0  0  0  0  0  0
    1.3895   -1.8497    0.0000 C   0  0  0  0  0  0  0  0  0  0  0  0
    2.2812   -1.9614    0.0000 C   0  0  0  0  0  0  0  0  0  0  0  0
    3.0934   -2.1066    0.0000 C   0  0  0  0  0  0  0  0  0  0  0  0
    3.3737   -2.8825    0.0000 C   0  0  0  0  0  0  0  0  0  0  0  0
    4.1858   -3.0277    0.0000 C   0  0  0  0  0  0  0  0  0  0  0  0
    3.9055   -2.2518    0.0000 C   0  0  0  0  0  0  0  0  0  0  0  0
    4.7176   -2.3970    0.0000 C   0  0  0  0  0  0  0  0  0  0  0  0
    5.5297   -2.5422    0.0000 C   0  0  0  0  0  0  0  0  0  0  0  0
    5.8100   -3.3182    0.0000 C   0  0  0  0  0  0  0  0  0  0  0  0
    5.2782   -3.9489    0.0000 C   0  0  0  0  0  0  0  0  0  0  0  0
    6.6221   -3.4634    0.0000 O   0  0  0  0  0  0  0  0  0  0  0  0
    4.4661   -3.8037    0.0000 C   0  0  0  0  0  0  0  0  0  0  0  0
    3.9343   -4.4344    0.0000 C   0  0  0  0  0  0  0  0  0  0  0  0
    2.0297   -3.3680    0.0000 C   0  0  0  0  0  0  0  0  0  0  0  0
    2.8418   -3.5132    0.0000 C   0  0  0  0  0  0  0  0  0  0  0  0
    3.1221   -4.2891    0.0000 C   0  0  0  0  0  0  0  0  0  0  0  0
    2.5903   -4.9199    0.0000 O   0  0  0  0  0  0  0  0  0  0  0  0
  2  1  1  1
  2  3  1  0
  3  4  1  0
  4  5  1  0
  5  6  1  0
  5  7  2  0
  8  2  1  0
  8  9  1  6
  9 10  1  0
  8 11  1  0
 11 12  1  6
 11 13  1  0
 13 14  1  0
 15 14  1  6
 15 16  1  0
 16 17  1  6
 16 18  1  0
 18 19  1  0
 20 19  1  0
 20 21  1  0
 20 22  1  1
 16 23  1  0
 23 21  1  1
 23 24  1  0
 11 25  1  0
 25 10  1  6
 25 26  1  0
 26 15  1  0
 26 27  1  1
 24 27  1  0
 27 28  2  0
M  END
>  <ID>  (54) 
T13522

>  <CAS>  (54) 
4651-67-6

>  <Formula>  (54) 
C24H38O4

>  <MolWt>  (54) 
390.56

>  <rank>  (54) 
54

>  <final_score>  (54) 
0.0000

>  <max_tc>  (54) 
0.6066

>  <best_match>  (54) 
Obeticholic acid (OCA)

>  <best_target>  (54) 
FXR

>  <physchem_compliance>  (54) 
0.0000

>  <toxic_score>  (54) 
0.8000

$$$$

     RDKit          2D

 31 34  0  0  1  0  0  0  0  0999 V2000
    0.3340   -5.1326    0.0000 C   0  0  0  0  0  0  0  0  0  0  0  0
    0.3340   -4.3076    0.0000 C   0  0  0  0  0  0  0  0  0  0  0  0
    1.0484   -3.8951    0.0000 C   0  0  0  0  0  0  0  0  0  0  0  0
    1.7629   -4.3076    0.0000 C   0  0  0  0  0  0  0  0  0  0  0  0
    2.4774   -3.8951    0.0000 C   0  0  0  0  0  0  0  0  0  0  0  0
    3.1918   -4.3076    0.0000 N   0  0  0  0  0  0  0  0  0  0  0  0
    3.9063   -3.8951    0.0000 C   0  0  0  0  0  0  0  0  0  0  0  0
    4.6208   -4.3076    0.0000 C   0  0  0  0  0  0  0  0  0  0  0  0
    5.3353   -3.8951    0.0000 O   0  0  0  0  0  0  0  0  0  0  0  0
    4.6208   -5.1326    0.0000 O   0  0  0  0  0  0  0  0  0  0  0  0
    2.4774   -3.0701    0.0000 O   0  0  0  0  0  0  0  0  0  0  0  0
   -0.3805   -3.8951    0.0000 C   0  0  0  0  0  0  0  0  0  0  0  0
   -0.4667   -3.0746    0.0000 C   0  0  0  0  0  0  0  0  0  0  0  0
   -1.2737   -2.9031    0.0000 C   0  0  0  0  0  0  0  0  0  0  0  0
   -1.1342   -4.2306    0.0000 C   0  0  0  0  0  0  0  0  0  0  0  0
   -0.5211   -4.7827    0.0000 C   0  0  0  0  0  0  0  0  0  0  0  0
   -1.3891   -5.0152    0.0000 C   0  0  0  0  0  0  0  0  0  0  0  0
   -2.1961   -5.1868    0.0000 C   0  0  0  0  0  0  0  0  0  0  0  0
   -1.6862   -3.6175    0.0000 C   0  0  0  0  0  0  0  0  0  0  0  0
   -2.4932   -3.7891    0.0000 C   0  0  0  0  0  0  0  0  0  0  0  0
   -3.0452   -3.1760    0.0000 C   0  0  0  0  0  0  0  0  0  0  0  0
   -3.8522   -3.3475    0.0000 C   0  0  0  0  0  0  0  0  0  0  0  0
   -2.7481   -4.5737    0.0000 C   0  0  0  0  0  0  0  0  0  0  0  0
   -3.5551   -4.7452    0.0000 C   0  0  0  0  0  0  0  0  0  0  0  0
   -3.0031   -5.3583    0.0000 C   0  0  0  0  0  0  0  0  0  0  0  0
   -3.8100   -5.5298    0.0000 C   0  0  0  0  0  0  0  0  0  0  0  0
   -4.6170   -5.7014    0.0000 C   0  0  0  0  0  0  0  0  0  0  0  0
   -4.1071   -4.1321    0.0000 C   0  0  0  0  0  0  0  0  0  0  0  0
   -4.9141   -4.3036    0.0000 C   0  0  0  0  0  0  0  0  0  0  0  0
   -5.1690   -5.0883    0.0000 C   0  0  0  0  0  0  0  0  0  0  0  0
   -5.9760   -5.2598    0.0000 O   0  0  0  0  0  0  0  0  0  0  0  0
  2  1  1  1
  2  3  1  0
  3  4  1  0
  4  5  1  0
  5  6  1  0
  6  7  1  0
  7  8  1  0
  8  9  1  0
  8 10  2  0
  5 11  2  0
 12  2  1  0
 12 13  1  6
 13 14  1  0
 12 15  1  0
 15 16  1  6
 15 17  1  0
 17 18  1  0
 15 19  1  0
 19 14  1  6
 19 20  1  0
 20 21  1  1
 21 22  1  0
 20 23  1  0
 23 18  1  6
 23 24  1  0
 24 25  1  6
 24 26  1  0
 26 27  1  0
 24 28  1  0
 28 22  1  1
 28 29  1  0
 30 29  1  0
 30 27  1  0
 30 31  1  1
M  END
>  <ID>  (55) 
T31964

>  <CAS>  (55) 
474-74-8

>  <Formula>  (55) 
C26H43NO4

>  <MolWt>  (55) 
433.62

>  <rank>  (55) 
55

>  <final_score>  (55) 
0.0000

>  <max_tc>  (55) 
0.5075

>  <best_match>  (55) 
Obeticholic acid (OCA)

>  <best_target>  (55) 
FXR

>  <physchem_compliance>  (55) 
0.0000

>  <toxic_score>  (55) 
0.6000

$$$$

     RDKit          2D

 33 36  0  0  1  0  0  0  0  0999 V2000
   -0.9931   -0.9505    0.0000 C   0  0  0  0  0  0  0  0  0  0  0  0
   -0.6332   -0.2081    0.0000 C   0  0  0  0  0  0  0  0  0  0  0  0
   -1.4577   -0.1813    0.0000 C   0  0  0  0  0  0  0  0  0  0  0  0
   -1.9641   -0.8326    0.0000 C   0  0  0  0  0  0  0  0  0  0  0  0
   -1.6532   -1.5968    0.0000 C   0  0  0  0  0  0  0  0  0  0  0  0
   -2.7813   -0.7198    0.0000 C   0  0  0  0  0  0  0  0  0  0  0  0
   -3.2877   -1.3711    0.0000 C   0  0  0  0  0  0  0  0  0  0  0  0
   -4.1049   -1.2583    0.0000 C   0  0  0  0  0  0  0  0  0  0  0  0
   -4.6113   -1.9096    0.0000 O   0  0  0  0  0  0  0  0  0  0  0  0
   -4.4158   -0.4941    0.0000 O   0  0  0  0  0  0  0  0  0  0  0  0
   -2.2680   -0.0259    0.0000 H   0  0  0  0  0  0  0  0  0  0  0  0
   -1.6871    0.6112    0.0000 C   0  0  0  0  0  0  0  0  0  0  0  0
   -1.0042    1.0742    0.0000 C   0  0  0  0  0  0  0  0  0  0  0  0
   -0.3529    0.5678    0.0000 C   0  0  0  0  0  0  0  0  0  0  0  0
    0.1789   -0.0629    0.0000 H   0  0  0  0  0  0  0  0  0  0  0  0
    0.4592    0.7130    0.0000 C   0  0  0  0  0  0  0  0  0  0  0  0
    1.2714    0.8582    0.0000 H   0  0  0  0  0  0  0  0  0  0  0  0
    0.7395    1.4889    0.0000 C   0  0  0  0  0  0  0  0  0  0  0  0
    0.2077    2.1196    0.0000 O   0  0  0  0  0  0  0  0  0  0  0  0
    1.5517    1.6342    0.0000 C   0  0  0  0  0  0  0  0  0  0  0  0
    2.0835    1.0034    0.0000 C   0  0  0  0  0  0  0  0  0  0  0  0
    2.6153    0.3727    0.0000 H   0  0  0  0  0  0  0  0  0  0  0  0
    2.8956    1.1487    0.0000 C   0  0  0  0  0  0  0  0  0  0  0  0
    3.4274    0.5180    0.0000 C   0  0  0  0  0  0  0  0  0  0  0  0
    4.2395    0.6632    0.0000 O   0  0  0  0  0  0  0  0  0  0  0  0
    3.1471   -0.2580    0.0000 C   0  0  0  0  0  0  0  0  0  0  0  0
    2.3350   -0.4032    0.0000 C   0  0  0  0  0  0  0  0  0  0  0  0
    1.8032    0.2275    0.0000 C   0  0  0  0  0  0  0  0  0  0  0  0
    1.5229   -0.5484    0.0000 C   0  0  0  0  0  0  0  0  0  0  0  0
    0.9911    0.0823    0.0000 C   0  0  0  0  0  0  0  0  0  0  0  0
    1.1363   -0.7298    0.0000 H   0  0  0  0  0  0  0  0  0  0  0  0
    0.7108   -0.6936    0.0000 C   0  0  0  0  0  0  0  0  0  0  0  0
   -0.1014   -0.8388    0.0000 C   0  0  0  0  0  0  0  0  0  0  0  0
  2  1  1  1
  2  3  1  0
  3  4  1  0
  4  5  1  1
  4  6  1  0
  6  7  1  0
  7  8  1  0
  8  9  1  0
  8 10  2  0
  3 11  1  6
  3 12  1  0
 12 13  1  0
 14 13  1  0
 14  2  1  0
 14 15  1  6
 16 14  1  0
 16 17  1  1
 16 18  1  0
 18 19  1  1
 18 20  1  0
 21 20  1  0
 21 22  1  1
 21 23  1  0
 24 23  1  0
 24 25  1  6
 24 26  1  0
 26 27  1  0
 28 27  1  0
 28 21  1  0
 28 29  1  1
 30 28  1  0
 16 30  1  0
 30 31  1  6
 30 32  1  0
 32 33  1  0
  2 33  1  0
M  END
>  <ID>  (56) 
T29078

>  <CAS>  (56) 
2898-95-5

>  <Formula>  (56) 
C24H40NaO4

>  <MolWt>  (56) 
415.56

>  <rank>  (56) 
56

>  <final_score>  (56) 
0.0000

>  <max_tc>  (56) 
0.4118

>  <best_match>  (56) 
Obeticholic acid (OCA)

>  <best_target>  (56) 
FXR

>  <physchem_compliance>  (56) 
0.0000

>  <toxic_score>  (56) 
0.8000

$$$$

     RDKit          2D

 34 37  0  0  1  0  0  0  0  0999 V2000
    3.1220   -1.3344    0.0000 O   0  0  0  0  0  0  0  0  0  0  0  0
    2.5902   -0.7037    0.0000 C   0  0  0  0  0  0  0  0  0  0  0  0
    2.8705    0.0722    0.0000 C   0  0  0  0  0  0  0  0  0  0  0  0
    3.6826    0.2174    0.0000 C   0  0  0  0  0  0  0  0  0  0  0  0
    3.9629    0.9934    0.0000 C   0  0  0  0  0  0  0  0  0  0  0  0
    4.3228    1.7357    0.0000 C   0  0  0  0  0  0  0  0  0  0  0  0
    4.7875    0.9666    0.0000 C   0  0  0  0  0  0  0  0  0  0  0  0
    5.2939    1.6179    0.0000 C   0  0  0  0  0  0  0  0  0  0  0  0
    6.1111    1.5050    0.0000 C   0  0  0  0  0  0  0  0  0  0  0  0
    6.6175    2.1564    0.0000 C   0  0  0  0  0  0  0  0  0  0  0  0
    7.4347    2.0435    0.0000 C   0  0  0  0  0  0  0  0  0  0  0  0
    7.9411    2.6948    0.0000 O   0  0  0  0  0  0  0  0  0  0  0  0
    7.7456    1.2793    0.0000 O   0  0  0  0  0  0  0  0  0  0  0  0
    4.9830    2.3821    0.0000 C   0  0  0  0  0  0  0  0  0  0  0  0
    5.0168    0.1741    0.0000 C   0  0  0  0  0  0  0  0  0  0  0  0
    4.3340   -0.2889    0.0000 C   0  0  0  0  0  0  0  0  0  0  0  0
    5.5977    0.8111    0.0000 H   0  0  0  0  0  0  0  0  0  0  0  0
    3.4311    1.6241    0.0000 C   0  0  0  0  0  0  0  0  0  0  0  0
    3.7114    2.4000    0.0000 O   0  0  0  0  0  0  0  0  0  0  0  0
    2.6190    1.4789    0.0000 C   0  0  0  0  0  0  0  0  0  0  0  0
    2.3387    0.7029    0.0000 C   0  0  0  0  0  0  0  0  0  0  0  0
    1.5266    0.5577    0.0000 C   0  0  0  0  0  0  0  0  0  0  0  0
    1.8069    1.3336    0.0000 C   0  0  0  0  0  0  0  0  0  0  0  0
    1.2463   -0.2182    0.0000 C   0  0  0  0  0  0  0  0  0  0  0  0
    1.7781   -0.8489    0.0000 C   0  0  0  0  0  0  0  0  0  0  0  0
    0.4342   -0.3634    0.0000 C   0  0  0  0  0  0  0  0  0  0  0  0
   -0.0976    0.2673    0.0000 C   0  0  0  0  0  0  0  0  0  0  0  0
   -0.9098    0.1221    0.0000 O   0  0  0  0  0  0  0  0  0  0  0  0
    0.1827    1.0432    0.0000 C   0  0  0  0  0  0  0  0  0  0  0  0
    0.9948    1.1884    0.0000 C   0  0  0  0  0  0  0  0  0  0  0  0
    0.9660   -0.9941    0.0000 H   0  0  0  0  0  0  0  0  0  0  0  0
    2.0584   -0.0730    0.0000 H   0  0  0  0  0  0  0  0  0  0  0  0
    3.1508    0.8481    0.0000 H   0  0  0  0  0  0  0  0  0  0  0  0
    3.4023   -0.5585    0.0000 H   0  0  0  0  0  0  0  0  0  0  0  0
  1  2  2  0
  3  2  1  0
  4  3  1  0
  5  4  1  0
  5  6  1  1
  5  7  1  0
  7  8  1  0
  8  9  1  0
  9 10  1  0
 10 11  1  0
 11 12  1  0
 11 13  2  0
  8 14  1  6
  7 15  1  0
 15 16  1  0
  4 16  1  0
  7 17  1  6
  5 18  1  0
 18 19  1  6
 18 20  1  0
 21 20  1  0
  3 21  1  0
 21 22  1  0
 22 23  1  1
 22 24  1  0
 24 25  1  0
  2 25  1  0
 24 26  1  0
 27 26  1  0
 27 28  1  6
 27 29  1  0
 29 30  1  0
 22 30  1  0
 24 31  1  1
 21 32  1  6
  4 33  1  6
  3 34  1  1
M  END
>  <ID>  (57) 
TN7120

>  <CAS>  (57) 
911-40-0

>  <Formula>  (57) 
C24H38O5

>  <MolWt>  (57) 
406.56

>  <rank>  (57) 
57

>  <final_score>  (57) 
0.0000

>  <max_tc>  (57) 
0.3684

>  <best_match>  (57) 
Obeticholic acid (OCA)

>  <best_target>  (57) 
FXR

>  <physchem_compliance>  (57) 
0.0000

>  <toxic_score>  (57) 
0.8000

$$$$

     RDKit          2D

 34 37  0  0  1  0  0  0  0  0999 V2000
    1.0789   -3.3295    0.0000 C   0  0  0  0  0  0  0  0  0  0  0  0
    0.2943   -3.0746    0.0000 C   0  0  0  0  0  0  0  0  0  0  0  0
   -0.5127   -2.9031    0.0000 C   0  0  0  0  0  0  0  0  0  0  0  0
   -0.7676   -2.1184    0.0000 C   0  0  0  0  0  0  0  0  0  0  0  0
   -0.2156   -1.5053    0.0000 C   0  0  0  0  0  0  0  0  0  0  0  0
   -0.4705   -0.7207    0.0000 C   0  0  0  0  0  0  0  0  0  0  0  0
    0.3364   -0.8922    0.0000 C   0  0  0  0  0  0  0  0  0  0  0  0
   -1.2775   -0.5492    0.0000 C   0  0  0  0  0  0  0  0  0  0  0  0
   -1.8296   -1.1623    0.0000 C   0  0  0  0  0  0  0  0  0  0  0  0
   -1.5746   -1.9469    0.0000 C   0  0  0  0  0  0  0  0  0  0  0  0
   -2.1266   -2.5600    0.0000 O   0  0  0  0  0  0  0  0  0  0  0  0
   -1.5325    0.2354    0.0000 C   0  0  0  0  0  0  0  0  0  0  0  0
   -0.9804    0.8485    0.0000 C   0  0  0  0  0  0  0  0  0  0  0  0
   -1.2354    1.6331    0.0000 O   0  0  0  0  0  0  0  0  0  0  0  0
   -0.1735    0.6770    0.0000 C   0  0  0  0  0  0  0  0  0  0  0  0
    0.0815   -0.1076    0.0000 C   0  0  0  0  0  0  0  0  0  0  0  0
   -2.0845   -0.3777    0.0000 H   0  0  0  0  0  0  0  0  0  0  0  0
    0.5914   -1.6769    0.0000 C   0  0  0  0  0  0  0  0  0  0  0  0
    0.8463   -2.4615    0.0000 C   0  0  0  0  0  0  0  0  0  0  0  0
    0.5690   -1.2504    0.0000 H   0  0  0  0  0  0  0  0  0  0  0  0
   -1.0226   -1.3338    0.0000 H   0  0  0  0  0  0  0  0  0  0  0  0
   -0.9252   -3.6175    0.0000 C   0  0  0  0  0  0  0  0  0  0  0  0
   -0.3732   -4.2306    0.0000 C   0  0  0  0  0  0  0  0  0  0  0  0
    0.3805   -3.8951    0.0000 C   0  0  0  0  0  0  0  0  0  0  0  0
    1.0950   -4.3076    0.0000 C   0  0  0  0  0  0  0  0  0  0  0  0
    1.8094   -3.8951    0.0000 C   0  0  0  0  0  0  0  0  0  0  0  0
    2.5239   -4.3076    0.0000 C   0  0  0  0  0  0  0  0  0  0  0  0
    3.2384   -3.8951    0.0000 C   0  0  0  0  0  0  0  0  0  0  0  0
    3.9529   -4.3076    0.0000 C   0  0  0  0  0  0  0  0  0  0  0  0
    4.6673   -3.8951    0.0000 F   0  0  0  0  0  0  0  0  0  0  0  0
    3.2384   -3.0701    0.0000 O   0  0  0  0  0  0  0  0  0  0  0  0
    1.0950   -5.1326    0.0000 C   0  0  0  0  0  0  0  0  0  0  0  0
    0.3373   -4.7189    0.0000 H   0  0  0  0  0  0  0  0  0  0  0  0
    0.0393   -2.2900    0.0000 H   0  0  0  0  0  0  0  0  0  0  0  0
  2  1  1  1
  3  2  1  0
  4  3  1  0
  4  5  1  0
  5  6  1  0
  6  7  1  1
  6  8  1  0
  8  9  1  0
 10  9  1  0
  4 10  1  0
 10 11  1  6
  8 12  1  0
 13 12  1  0
 13 14  1  6
 13 15  1  0
 15 16  1  0
  6 16  1  0
  8 17  1  1
  5 18  1  0
 18 19  1  0
  2 19  1  0
  5 20  1  6
  4 21  1  1
  3 22  1  0
 22 23  1  0
 24 23  1  0
  2 24  1  0
 24 25  1  0
 25 26  1  0
 26 27  1  0
 27 28  1  0
 28 29  1  0
 29 30  1  0
 28 31  2  0
 25 32  1  1
 24 33  1  6
  3 34  1  6
M  END
>  <ID>  (58) 
T10623

>  <CAS>  (58) 
2553217-91-5

>  <Formula>  (58) 
C25H41FO3

>  <MolWt>  (58) 
408.59

>  <rank>  (58) 
58

>  <final_score>  (58) 
0.0000

>  <max_tc>  (58) 
0.3243

>  <best_match>  (58) 
Obeticholic acid (OCA)

>  <best_target>  (58) 
FXR

>  <physchem_compliance>  (58) 
0.0000

>  <toxic_score>  (58) 
0.4000

$$$$

     RDKit          2D

 36 39  0  0  1  0  0  0  0  0999 V2000
    1.1714   -3.5705    0.0000 C   0  0  0  0  0  0  0  0  0  0  0  0
    0.3868   -3.3156    0.0000 C   0  0  0  0  0  0  0  0  0  0  0  0
   -0.4202   -3.1440    0.0000 C   0  0  0  0  0  0  0  0  0  0  0  0
   -0.8327   -3.8585    0.0000 C   0  0  0  0  0  0  0  0  0  0  0  0
   -0.2807   -4.4716    0.0000 C   0  0  0  0  0  0  0  0  0  0  0  0
    0.4730   -4.1360    0.0000 C   0  0  0  0  0  0  0  0  0  0  0  0
    0.4298   -4.9599    0.0000 H   0  0  0  0  0  0  0  0  0  0  0  0
    1.1875   -4.5485    0.0000 C   0  0  0  0  0  0  0  0  0  0  0  0
    1.1875   -5.3735    0.0000 C   0  0  0  0  0  0  0  0  0  0  0  0
    1.9019   -4.1360    0.0000 C   0  0  0  0  0  0  0  0  0  0  0  0
    2.6164   -4.5485    0.0000 C   0  0  0  0  0  0  0  0  0  0  0  0
    3.3309   -4.1360    0.0000 C   0  0  0  0  0  0  0  0  0  0  0  0
    4.0454   -4.5485    0.0000 N   0  0  0  0  0  0  0  0  0  0  0  0
    4.7598   -4.1360    0.0000 C   0  0  0  0  0  0  0  0  0  0  0  0
    5.4743   -4.5485    0.0000 C   0  0  0  0  0  0  0  0  0  0  0  0
    6.1888   -4.1360    0.0000 O   0  0  0  0  0  0  0  0  0  0  0  0
    5.4743   -5.3735    0.0000 O   0  0  0  0  0  0  0  0  0  0  0  0
    3.3309   -3.3110    0.0000 O   0  0  0  0  0  0  0  0  0  0  0  0
    0.1318   -2.5309    0.0000 H   0  0  0  0  0  0  0  0  0  0  0  0
   -0.6751   -2.3594    0.0000 C   0  0  0  0  0  0  0  0  0  0  0  0
   -0.9301   -1.5748    0.0000 H   0  0  0  0  0  0  0  0  0  0  0  0
   -0.1231   -1.7463    0.0000 C   0  0  0  0  0  0  0  0  0  0  0  0
    0.6839   -1.9178    0.0000 C   0  0  0  0  0  0  0  0  0  0  0  0
    0.9388   -2.7025    0.0000 C   0  0  0  0  0  0  0  0  0  0  0  0
    0.6615   -1.4914    0.0000 H   0  0  0  0  0  0  0  0  0  0  0  0
   -0.3780   -0.9617    0.0000 C   0  0  0  0  0  0  0  0  0  0  0  0
   -1.1850   -0.7902    0.0000 C   0  0  0  0  0  0  0  0  0  0  0  0
   -1.4400   -0.0055    0.0000 C   0  0  0  0  0  0  0  0  0  0  0  0
   -0.8879    0.6075    0.0000 C   0  0  0  0  0  0  0  0  0  0  0  0
   -0.0810    0.4360    0.0000 C   0  0  0  0  0  0  0  0  0  0  0  0
    0.1740   -0.3486    0.0000 C   0  0  0  0  0  0  0  0  0  0  0  0
   -1.1429    1.3922    0.0000 O   0  0  0  0  0  0  0  0  0  0  0  0
   -1.9920   -0.6186    0.0000 H   0  0  0  0  0  0  0  0  0  0  0  0
   -1.7371   -1.4033    0.0000 C   0  0  0  0  0  0  0  0  0  0  0  0
   -1.4821   -2.1879    0.0000 C   0  0  0  0  0  0  0  0  0  0  0  0
    0.4289   -1.1332    0.0000 C   0  0  0  0  0  0  0  0  0  0  0  0
  2  1  1  1
  2  3  1  0
  3  4  1  0
  4  5  1  0
  6  5  1  0
  2  6  1  0
  6  7  1  6
  6  8  1  0
  8  9  1  1
  8 10  1  0
 10 11  1  0
 11 12  1  0
 12 13  1  0
 13 14  1  0
 14 15  1  0
 15 16  1  0
 15 17  2  0
 12 18  2  0
  3 19  1  6
  3 20  1  0
 20 21  1  1
 20 22  1  0
 22 23  1  0
 23 24  1  0
  2 24  1  0
 22 25  1  6
 22 26  1  0
 26 27  1  0
 27 28  1  0
 29 28  1  0
 29 30  1  0
 30 31  1  0
 26 31  1  0
 29 32  1  6
 27 33  1  1
 27 34  1  0
 34 35  1  0
 20 35  1  0
 26 36  1  1
M  CHG  1  16  -1
M  END
>  <ID>  (59) 
T64334

>  <CAS>  (59) 
24404-83-9

>  <Formula>  (59) 
C26H42NNaO4

>  <MolWt>  (59) 
455.61

>  <rank>  (59) 
59

>  <final_score>  (59) 
0.0000

>  <max_tc>  (59) 
0.3165

>  <best_match>  (59) 
Obeticholic acid (OCA)

>  <best_target>  (59) 
FXR

>  <physchem_compliance>  (59) 
0.0000

>  <toxic_score>  (59) 
0.6000

$$$$

     RDKit          2D

 32 35  0  0  1  0  0  0  0  0999 V2000
    4.3228    1.7357    0.0000 C   0  0  0  0  0  0  0  0  0  0  0  0
    3.9629    0.9934    0.0000 C   0  0  0  0  0  0  0  0  0  0  0  0
    3.6826    0.2174    0.0000 C   0  0  0  0  0  0  0  0  0  0  0  0
    2.8705    0.0722    0.0000 C   0  0  0  0  0  0  0  0  0  0  0  0
    2.3387    0.7029    0.0000 C   0  0  0  0  0  0  0  0  0  0  0  0
    1.5266    0.5577    0.0000 C   0  0  0  0  0  0  0  0  0  0  0  0
    1.8069    1.3336    0.0000 C   0  0  0  0  0  0  0  0  0  0  0  0
    1.2463   -0.2182    0.0000 C   0  0  0  0  0  0  0  0  0  0  0  0
    1.7781   -0.8489    0.0000 C   0  0  0  0  0  0  0  0  0  0  0  0
    2.5902   -0.7037    0.0000 C   0  0  0  0  0  0  0  0  0  0  0  0
    0.4342   -0.3634    0.0000 C   0  0  0  0  0  0  0  0  0  0  0  0
   -0.0976    0.2673    0.0000 C   0  0  0  0  0  0  0  0  0  0  0  0
   -0.9098    0.1221    0.0000 O   0  0  0  0  0  0  0  0  0  0  0  0
    0.1827    1.0432    0.0000 C   0  0  0  0  0  0  0  0  0  0  0  0
    0.9948    1.1884    0.0000 C   0  0  0  0  0  0  0  0  0  0  0  0
    0.9660   -0.9941    0.0000 H   0  0  0  0  0  0  0  0  0  0  0  0
    2.6190    1.4789    0.0000 C   0  0  0  0  0  0  0  0  0  0  0  0
    3.4311    1.6241    0.0000 C   0  0  0  0  0  0  0  0  0  0  0  0
    2.1935    1.5150    0.0000 H   0  0  0  0  0  0  0  0  0  0  0  0
    2.0584   -0.0730    0.0000 H   0  0  0  0  0  0  0  0  0  0  0  0
    4.3340   -0.2889    0.0000 C   0  0  0  0  0  0  0  0  0  0  0  0
    5.0168    0.1741    0.0000 C   0  0  0  0  0  0  0  0  0  0  0  0
    4.7875    0.9666    0.0000 C   0  0  0  0  0  0  0  0  0  0  0  0
    5.2939    1.6179    0.0000 C   0  0  0  0  0  0  0  0  0  0  0  0
    6.1111    1.5050    0.0000 C   0  0  0  0  0  0  0  0  0  0  0  0
    6.6175    2.1564    0.0000 C   0  0  0  0  0  0  0  0  0  0  0  0
    7.4347    2.0435    0.0000 C   0  0  0  0  0  0  0  0  0  0  0  0
    7.9411    2.6948    0.0000 O   0  0  0  0  0  0  0  0  0  0  0  0
    7.7456    1.2793    0.0000 O   0  0  0  0  0  0  0  0  0  0  0  0
    4.9830    2.3821    0.0000 C   0  0  0  0  0  0  0  0  0  0  0  0
    5.5977    0.8111    0.0000 H   0  0  0  0  0  0  0  0  0  0  0  0
    3.1508    0.8481    0.0000 H   0  0  0  0  0  0  0  0  0  0  0  0
  2  1  1  1
  2  3  1  0
  3  4  1  0
  4  5  1  0
  5  6  1  0
  6  7  1  1
  6  8  1  0
  8  9  1  0
  9 10  1  0
  4 10  1  0
  8 11  1  0
 12 11  1  0
 12 13  1  1
 12 14  1  0
 14 15  1  0
  6 15  1  0
  8 16  1  1
  5 17  1  0
 17 18  1  0
  2 18  1  0
  5 19  1  6
  4 20  1  1
  3 21  1  0
 21 22  1  0
 23 22  1  0
  2 23  1  0
 23 24  1  0
 24 25  1  0
 25 26  1  0
 26 27  1  0
 27 28  1  0
 27 29  2  0
 24 30  1  6
 23 31  1  6
  3 32  1  6
M  END
>  <ID>  (60) 
T35792

>  <CAS>  (60) 
1534-35-6

>  <Formula>  (60) 
C24H40O3

>  <MolWt>  (60) 
376.57

>  <rank>  (60) 
60

>  <final_score>  (60) 
0.0000

>  <max_tc>  (60) 
0.4328

>  <best_match>  (60) 
Obeticholic acid (OCA)

>  <best_target>  (60) 
FXR

>  <physchem_compliance>  (60) 
0.0000

>  <toxic_score>  (60) 
0.6000

$$$$

     RDKit          2D

 25 26  0  0  0  0  0  0  0  0999 V2000
   -0.7145   -6.1875    0.0000 O   0  0  0  0  0  0  0  0  0  0  0  0
   -0.7145   -5.3625    0.0000 C   0  0  0  0  0  0  0  0  0  0  0  0
   -1.4289   -4.9500    0.0000 O   0  0  0  0  0  0  0  0  0  0  0  0
    0.0000   -4.9500    0.0000 C   0  0  0  0  0  0  0  0  0  0  0  0
    0.0000   -4.1250    0.0000 C   0  0  0  0  0  0  0  0  0  0  0  0
    0.7145   -3.7125    0.0000 C   0  0  0  0  0  0  0  0  0  0  0  0
    1.4289   -4.1250    0.0000 C   0  0  0  0  0  0  0  0  0  0  0  0
    2.1434   -3.7125    0.0000 O   0  0  0  0  0  0  0  0  0  0  0  0
    2.8579   -4.1250    0.0000 C   0  0  0  0  0  0  0  0  0  0  0  0
    3.5724   -3.7125    0.0000 C   0  0  0  0  0  0  0  0  0  0  0  0
    3.5724   -2.8875    0.0000 O   0  0  0  0  0  0  0  0  0  0  0  0
    4.2868   -4.1250    0.0000 C   0  0  0  0  0  0  0  0  0  0  0  0
    5.0013   -3.7125    0.0000 O   0  0  0  0  0  0  0  0  0  0  0  0
    5.7158   -4.1250    0.0000 C   0  0  0  0  0  0  0  0  0  0  0  0
    6.4302   -3.7125    0.0000 C   0  0  0  0  0  0  0  0  0  0  0  0
    7.1447   -4.1250    0.0000 C   0  0  0  0  0  0  0  0  0  0  0  0
    7.1447   -4.9500    0.0000 C   0  0  0  0  0  0  0  0  0  0  0  0
    6.4302   -5.3625    0.0000 C   0  0  0  0  0  0  0  0  0  0  0  0
    5.7158   -4.9500    0.0000 C   0  0  0  0  0  0  0  0  0  0  0  0
    7.8592   -5.3625    0.0000 C   0  0  0  0  0  0  0  0  0  0  0  0
    8.5737   -5.7750    0.0000 C   0  0  0  0  0  0  0  0  0  0  0  0
    7.4467   -6.0770    0.0000 C   0  0  0  0  0  0  0  0  0  0  0  0
    8.2717   -4.6480    0.0000 C   0  0  0  0  0  0  0  0  0  0  0  0
    1.4289   -4.9500    0.0000 C   0  0  0  0  0  0  0  0  0  0  0  0
    0.7145   -5.3625    0.0000 C   0  0  0  0  0  0  0  0  0  0  0  0
  1  2  2  0
  2  3  1  0
  2  4  1  0
  4  5  1  0
  5  6  2  0
  6  7  1  0
  7  8  1  0
  8  9  1  0
  9 10  1  0
 10 11  1  0
 10 12  1  0
 12 13  1  0
 13 14  1  0
 14 15  1  0
 15 16  2  0
 16 17  1  0
 17 18  2  0
 18 19  1  0
 14 19  2  0
 17 20  1  0
 20 21  1  0
 20 22  1  0
 20 23  1  0
  7 24  2  0
 24 25  1  0
  4 25  2  0
M  END
>  <ID>  (61) 
T13919

>  <CAS>  (61) 
56488-59-6

>  <Formula>  (61) 
C20H24O5

>  <MolWt>  (61) 
344.4

>  <rank>  (61) 
61

>  <final_score>  (61) 
0.0000

>  <max_tc>  (61) 
0.3333

>  <best_match>  (61) 
BI-1467335

>  <best_target>  (61) 
AOC3/VAP-1

>  <physchem_compliance>  (61) 
0.0000

>  <toxic_score>  (61) 
0.8000

$$$$

     RDKit          2D

 33 36  0  0  1  0  0  0  0  0999 V2000
    4.3228    1.7357    0.0000 C   0  0  0  0  0  0  0  0  0  0  0  0
    3.9629    0.9934    0.0000 C   0  0  0  0  0  0  0  0  0  0  0  0
    3.6826    0.2174    0.0000 C   0  0  0  0  0  0  0  0  0  0  0  0
    2.8705    0.0722    0.0000 C   0  0  0  0  0  0  0  0  0  0  0  0
    2.3387    0.7029    0.0000 C   0  0  0  0  0  0  0  0  0  0  0  0
    1.5266    0.5577    0.0000 C   0  0  0  0  0  0  0  0  0  0  0  0
    1.8069    1.3336    0.0000 C   0  0  0  0  0  0  0  0  0  0  0  0
    1.2463   -0.2182    0.0000 C   0  0  0  0  0  0  0  0  0  0  0  0
    1.7781   -0.8489    0.0000 C   0  0  0  0  0  0  0  0  0  0  0  0
    2.5902   -0.7037    0.0000 C   0  0  0  0  0  0  0  0  0  0  0  0
    3.1220   -1.3344    0.0000 O   0  0  0  0  0  0  0  0  0  0  0  0
    0.4342   -0.3634    0.0000 C   0  0  0  0  0  0  0  0  0  0  0  0
   -0.0976    0.2673    0.0000 C   0  0  0  0  0  0  0  0  0  0  0  0
   -0.9098    0.1221    0.0000 O   0  0  0  0  0  0  0  0  0  0  0  0
    0.1827    1.0432    0.0000 C   0  0  0  0  0  0  0  0  0  0  0  0
    0.9948    1.1884    0.0000 C   0  0  0  0  0  0  0  0  0  0  0  0
    0.9660   -0.9941    0.0000 H   0  0  0  0  0  0  0  0  0  0  0  0
    2.6190    1.4789    0.0000 C   0  0  0  0  0  0  0  0  0  0  0  0
    3.4311    1.6241    0.0000 C   0  0  0  0  0  0  0  0  0  0  0  0
    2.1935    1.5150    0.0000 H   0  0  0  0  0  0  0  0  0  0  0  0
    2.0584   -0.0730    0.0000 H   0  0  0  0  0  0  0  0  0  0  0  0
    4.3340   -0.2889    0.0000 C   0  0  0  0  0  0  0  0  0  0  0  0
    5.0168    0.1741    0.0000 C   0  0  0  0  0  0  0  0  0  0  0  0
    4.7875    0.9666    0.0000 C   0  0  0  0  0  0  0  0  0  0  0  0
    5.2939    1.6179    0.0000 C   0  0  0  0  0  0  0  0  0  0  0  0
    6.1111    1.5050    0.0000 C   0  0  0  0  0  0  0  0  0  0  0  0
    6.6175    2.1564    0.0000 C   0  0  0  0  0  0  0  0  0  0  0  0
    7.4347    2.0435    0.0000 C   0  0  0  0  0  0  0  0  0  0  0  0
    7.9411    2.6948    0.0000 O   0  0  0  0  0  0  0  0  0  0  0  0
    7.7456    1.2793    0.0000 O   0  0  0  0  0  0  0  0  0  0  0  0
    4.9830    2.3821    0.0000 C   0  0  0  0  0  0  0  0  0  0  0  0
    5.5977    0.8111    0.0000 H   0  0  0  0  0  0  0  0  0  0  0  0
    3.1508    0.8481    0.0000 H   0  0  0  0  0  0  0  0  0  0  0  0
  2  1  1  1
  3  2  1  0
  4  3  1  0
  4  5  1  0
  5  6  1  0
  6  7  1  1
  6  8  1  0
  8  9  1  0
 10  9  1  0
  4 10  1  0
 10 11  1  1
  8 12  1  0
 13 12  1  0
 13 14  1  1
 13 15  1  0
 15 16  1  0
  6 16  1  0
  8 17  1  1
  5 18  1  0
 18 19  1  0
  2 19  1  0
  5 20  1  6
  4 21  1  1
  3 22  1  0
 22 23  1  0
 24 23  1  0
  2 24  1  0
 24 25  1  0
 25 26  1  0
 26 27  1  0
 27 28  1  0
 28 29  1  0
 28 30  2  0
 25 31  1  6
 24 32  1  6
  3 33  1  6
M  END
>  <ID>  (62) 
T13506

>  <CAS>  (62) 
78919-26-3

>  <Formula>  (62) 
C24H40O4

>  <MolWt>  (62) 
392.57

>  <rank>  (62) 
62

>  <final_score>  (62) 
0.0000

>  <max_tc>  (62) 
0.4118

>  <best_match>  (62) 
Obeticholic acid (OCA)

>  <best_target>  (62) 
FXR

>  <physchem_compliance>  (62) 
0.0000

>  <toxic_score>  (62) 
0.8000

$$$$

     RDKit          2D

 33 36  0  0  1  0  0  0  0  0999 V2000
    1.8069   -2.9836    0.0000 C   0  0  0  0  0  0  0  0  0  0  0  0
    1.5266   -2.2077    0.0000 C   0  0  0  0  0  0  0  0  0  0  0  0
    2.3387   -2.3529    0.0000 C   0  0  0  0  0  0  0  0  0  0  0  0
    2.8705   -1.7222    0.0000 C   0  0  0  0  0  0  0  0  0  0  0  0
    3.6826   -1.8674    0.0000 C   0  0  0  0  0  0  0  0  0  0  0  0
    3.9629   -2.6434    0.0000 C   0  0  0  0  0  0  0  0  0  0  0  0
    4.3228   -3.3857    0.0000 C   0  0  0  0  0  0  0  0  0  0  0  0
    3.4311   -3.2741    0.0000 C   0  0  0  0  0  0  0  0  0  0  0  0
    3.7114   -4.0500    0.0000 O   0  0  0  0  0  0  0  0  0  0  0  0
    2.6190   -3.1289    0.0000 C   0  0  0  0  0  0  0  0  0  0  0  0
    4.7875   -2.6166    0.0000 C   0  0  0  0  0  0  0  0  0  0  0  0
    5.2939   -3.2679    0.0000 C   0  0  0  0  0  0  0  0  0  0  0  0
    6.1111   -3.1550    0.0000 C   0  0  0  0  0  0  0  0  0  0  0  0
    6.6175   -3.8064    0.0000 C   0  0  0  0  0  0  0  0  0  0  0  0
    7.4347   -3.6935    0.0000 C   0  0  0  0  0  0  0  0  0  0  0  0
    7.9411   -4.3448    0.0000 O   0  0  0  0  0  0  0  0  0  0  0  0
    7.7456   -2.9293    0.0000 O   0  0  0  0  0  0  0  0  0  0  0  0
    4.9830   -4.0321    0.0000 C   0  0  0  0  0  0  0  0  0  0  0  0
    5.0168   -1.8241    0.0000 C   0  0  0  0  0  0  0  0  0  0  0  0
    4.3340   -1.3611    0.0000 C   0  0  0  0  0  0  0  0  0  0  0  0
    5.5977   -2.4611    0.0000 H   0  0  0  0  0  0  0  0  0  0  0  0
    3.1508   -2.4981    0.0000 H   0  0  0  0  0  0  0  0  0  0  0  0
    2.5902   -0.9463    0.0000 C   0  0  0  0  0  0  0  0  0  0  0  0
    3.1220   -0.3156    0.0000 O   0  0  0  0  0  0  0  0  0  0  0  0
    1.7781   -0.8011    0.0000 C   0  0  0  0  0  0  0  0  0  0  0  0
    1.2463   -1.4318    0.0000 C   0  0  0  0  0  0  0  0  0  0  0  0
    0.4342   -1.2866    0.0000 C   0  0  0  0  0  0  0  0  0  0  0  0
   -0.0976   -1.9173    0.0000 C   0  0  0  0  0  0  0  0  0  0  0  0
    0.1827   -2.6932    0.0000 C   0  0  0  0  0  0  0  0  0  0  0  0
    0.9948   -2.8384    0.0000 C   0  0  0  0  0  0  0  0  0  0  0  0
    0.7145   -2.0625    0.0000 H   0  0  0  0  0  0  0  0  0  0  0  0
    3.4023   -1.0915    0.0000 H   0  0  0  0  0  0  0  0  0  0  0  0
    2.0584   -1.5770    0.0000 H   0  0  0  0  0  0  0  0  0  0  0  0
  2  1  1  6
  3  2  1  0
  4  3  1  0
  4  5  1  0
  5  6  1  0
  6  7  1  6
  6  8  1  0
  8  9  1  1
  8 10  1  0
  3 10  1  0
  6 11  1  0
 11 12  1  0
 12 13  1  0
 13 14  1  0
 14 15  1  0
 15 16  1  0
 15 17  2  0
 12 18  1  1
 11 19  1  0
 19 20  1  0
  5 20  1  0
 11 21  1  1
  5 22  1  1
  4 23  1  0
 23 24  1  1
 23 25  1  0
 26 25  1  0
  2 26  1  0
 26 27  1  0
 27 28  1  0
 28 29  1  0
 29 30  1  0
  2 30  1  0
 26 31  1  6
  4 32  1  6
  3 33  1  1
M  END
>  <ID>  (63) 
T36585

>  <CAS>  (63) 
566-17-6

>  <Formula>  (63) 
C24H40O4

>  <MolWt>  (63) 
392.57

>  <rank>  (63) 
63

>  <final_score>  (63) 
0.0000

>  <max_tc>  (63) 
0.3289

>  <best_match>  (63) 
Obeticholic acid (OCA)

>  <best_target>  (63) 
FXR

>  <physchem_compliance>  (63) 
0.0000

>  <toxic_score>  (63) 
0.8000

$$$$

     RDKit          2D

 32 35  0  0  1  0  0  0  0  0999 V2000
    4.3228    1.7357    0.0000 C   0  0  0  0  0  0  0  0  0  0  0  0
    3.9629    0.9934    0.0000 C   0  0  0  0  0  0  0  0  0  0  0  0
    3.6826    0.2174    0.0000 C   0  0  0  0  0  0  0  0  0  0  0  0
    2.8705    0.0722    0.0000 C   0  0  0  0  0  0  0  0  0  0  0  0
    2.3387    0.7029    0.0000 C   0  0  0  0  0  0  0  0  0  0  0  0
    1.5266    0.5577    0.0000 C   0  0  0  0  0  0  0  0  0  0  0  0
    1.8069    1.3336    0.0000 C   0  0  0  0  0  0  0  0  0  0  0  0
    1.2463   -0.2182    0.0000 C   0  0  0  0  0  0  0  0  0  0  0  0
    1.7781   -0.8489    0.0000 C   0  0  0  0  0  0  0  0  0  0  0  0
    2.5902   -0.7037    0.0000 C   0  0  0  0  0  0  0  0  0  0  0  0
    0.4342   -0.3634    0.0000 C   0  0  0  0  0  0  0  0  0  0  0  0
   -0.0976    0.2673    0.0000 C   0  0  0  0  0  0  0  0  0  0  0  0
   -0.9098    0.1221    0.0000 O   0  0  0  0  0  0  0  0  0  0  0  0
    0.1827    1.0432    0.0000 C   0  0  0  0  0  0  0  0  0  0  0  0
    0.9948    1.1884    0.0000 C   0  0  0  0  0  0  0  0  0  0  0  0
    0.9660   -0.9941    0.0000 H   0  0  0  0  0  0  0  0  0  0  0  0
    2.6190    1.4789    0.0000 C   0  0  0  0  0  0  0  0  0  0  0  0
    3.4311    1.6241    0.0000 C   0  0  0  0  0  0  0  0  0  0  0  0
    2.1935    1.5150    0.0000 H   0  0  0  0  0  0  0  0  0  0  0  0
    2.0584   -0.0730    0.0000 H   0  0  0  0  0  0  0  0  0  0  0  0
    4.3340   -0.2889    0.0000 C   0  0  0  0  0  0  0  0  0  0  0  0
    5.0168    0.1741    0.0000 C   0  0  0  0  0  0  0  0  0  0  0  0
    4.7875    0.9666    0.0000 C   0  0  0  0  0  0  0  0  0  0  0  0
    5.2939    1.6179    0.0000 C   0  0  0  0  0  0  0  0  0  0  0  0
    6.1111    1.5050    0.0000 C   0  0  0  0  0  0  0  0  0  0  0  0
    6.6175    2.1564    0.0000 C   0  0  0  0  0  0  0  0  0  0  0  0
    7.4347    2.0435    0.0000 C   0  0  0  0  0  0  0  0  0  0  0  0
    7.9411    2.6948    0.0000 O   0  0  0  0  0  0  0  0  0  0  0  0
    7.7456    1.2793    0.0000 O   0  0  0  0  0  0  0  0  0  0  0  0
    4.9830    2.3821    0.0000 C   0  0  0  0  0  0  0  0  0  0  0  0
    5.5977    0.8111    0.0000 H   0  0  0  0  0  0  0  0  0  0  0  0
    3.1508    0.8481    0.0000 H   0  0  0  0  0  0  0  0  0  0  0  0
  2  1  1  1
  2  3  1  0
  3  4  1  0
  4  5  1  0
  5  6  1  0
  6  7  1  1
  6  8  1  0
  8  9  1  0
  9 10  1  0
  4 10  1  0
  8 11  1  0
 12 11  1  0
 12 13  1  1
 12 14  1  0
 14 15  1  0
  6 15  1  0
  8 16  1  6
  5 17  1  0
 17 18  1  0
  2 18  1  0
  5 19  1  6
  4 20  1  1
  3 21  1  0
 21 22  1  0
 23 22  1  0
  2 23  1  0
 23 24  1  0
 24 25  1  0
 25 26  1  0
 26 27  1  0
 27 28  1  0
 27 29  2  0
 24 30  1  6
 23 31  1  6
  3 32  1  6
M  END
>  <ID>  (64) 
T36522

>  <CAS>  (64) 
2276-93-9

>  <Formula>  (64) 
C24H40O3

>  <MolWt>  (64) 
376.57

>  <rank>  (64) 
64

>  <final_score>  (64) 
0.0000

>  <max_tc>  (64) 
0.4328

>  <best_match>  (64) 
Obeticholic acid (OCA)

>  <best_target>  (64) 
FXR

>  <physchem_compliance>  (64) 
0.0000

>  <toxic_score>  (64) 
0.6000

$$$$

     RDKit          2D

 37 40  0  0  1  0  0  0  0  0999 V2000
    1.3081   -1.4260    0.0000 O   0  0  0  0  0  0  0  0  0  0  0  0
    1.8399   -2.0567    0.0000 C   0  0  0  0  0  0  0  0  0  0  0  0
    1.5596   -2.8327    0.0000 C   0  0  0  0  0  0  0  0  0  0  0  0
    2.0914   -3.4634    0.0000 C   0  0  0  0  0  0  0  0  0  0  0  0
    2.9035   -3.3182    0.0000 C   0  0  0  0  0  0  0  0  0  0  0  0
    2.6232   -4.0941    0.0000 C   0  0  0  0  0  0  0  0  0  0  0  0
    3.1838   -2.5422    0.0000 C   0  0  0  0  0  0  0  0  0  0  0  0
    2.6520   -1.9115    0.0000 C   0  0  0  0  0  0  0  0  0  0  0  0
    2.9323   -1.1356    0.0000 C   0  0  0  0  0  0  0  0  0  0  0  0
    2.4005   -0.5049    0.0000 C   0  0  0  0  0  0  0  0  0  0  0  0
    3.9960   -2.3970    0.0000 C   0  0  0  0  0  0  0  0  0  0  0  0
    4.5278   -3.0277    0.0000 C   0  0  0  0  0  0  0  0  0  0  0  0
    5.3399   -2.8825    0.0000 O   0  0  0  0  0  0  0  0  0  0  0  0
    4.2475   -3.8037    0.0000 C   0  0  0  0  0  0  0  0  0  0  0  0
    3.4354   -3.9489    0.0000 C   0  0  0  0  0  0  0  0  0  0  0  0
    3.4641   -1.7663    0.0000 H   0  0  0  0  0  0  0  0  0  0  0  0
    1.8111   -4.2393    0.0000 C   0  0  0  0  0  0  0  0  0  0  0  0
    0.9990   -4.3845    0.0000 C   0  0  0  0  0  0  0  0  0  0  0  0
    0.7187   -5.1604    0.0000 O   0  0  0  0  0  0  0  0  0  0  0  0
    0.4672   -3.7538    0.0000 C   0  0  0  0  0  0  0  0  0  0  0  0
    0.1073   -4.4962    0.0000 C   0  0  0  0  0  0  0  0  0  0  0  0
    0.7475   -2.9779    0.0000 C   0  0  0  0  0  0  0  0  0  0  0  0
    0.0962   -2.4715    0.0000 C   0  0  0  0  0  0  0  0  0  0  0  0
   -0.5867   -2.9345    0.0000 C   0  0  0  0  0  0  0  0  0  0  0  0
   -0.3574   -3.7270    0.0000 C   0  0  0  0  0  0  0  0  0  0  0  0
   -0.8637   -4.3783    0.0000 C   0  0  0  0  0  0  0  0  0  0  0  0
   -1.6810   -4.2655    0.0000 C   0  0  0  0  0  0  0  0  0  0  0  0
   -2.1873   -4.9168    0.0000 C   0  0  0  0  0  0  0  0  0  0  0  0
   -3.0046   -4.8040    0.0000 C   0  0  0  0  0  0  0  0  0  0  0  0
   -3.5109   -5.4553    0.0000 O   0  0  0  0  0  0  0  0  0  0  0  0
   -3.3155   -4.0398    0.0000 O   0  0  0  0  0  0  0  0  0  0  0  0
   -1.8764   -5.6810    0.0000 C   0  0  0  0  0  0  0  0  0  0  0  0
   -0.5528   -5.1425    0.0000 C   0  0  0  0  0  0  0  0  0  0  0  0
   -1.1676   -3.5715    0.0000 H   0  0  0  0  0  0  0  0  0  0  0  0
   -0.0450   -3.2072    0.0000 H   0  0  0  0  0  0  0  0  0  0  0  0
    1.2793   -3.6086    0.0000 H   0  0  0  0  0  0  0  0  0  0  0  0
    1.0278   -2.2020    0.0000 H   0  0  0  0  0  0  0  0  0  0  0  0
  2  1  1  6
  3  2  1  0
  3  4  1  0
  4  5  1  0
  5  6  1  1
  5  7  1  0
  8  7  1  0
  2  8  1  0
  8  9  1  6
  9 10  1  0
  7 11  1  0
 12 11  1  0
 12 13  1  6
 12 14  1  0
 14 15  1  0
  5 15  1  0
  7 16  1  1
  4 17  1  0
 18 17  1  0
 18 19  1  6
 20 18  1  0
 20 21  1  1
 22 20  1  0
  3 22  1  0
 22 23  1  0
 23 24  1  0
 25 24  1  0
 20 25  1  0
 25 26  1  0
 26 27  1  0
 28 27  1  0
 28 29  1  0
 29 30  1  0
 29 31  2  0
 28 32  1  6
 26 33  1  6
 25 34  1  6
 22 35  1  6
  4 36  1  6
  3 37  1  1
M  END
>  <ID>  (65) 
T11662L

>  <CAS>  (65) 
1199796-29-6

>  <Formula>  (65) 
C27H46O5

>  <MolWt>  (65) 
450.65

>  <rank>  (65) 
65

>  <final_score>  (65) 
0.0000

>  <max_tc>  (65) 
0.3506

>  <best_match>  (65) 
Obeticholic acid (OCA)

>  <best_target>  (65) 
FXR

>  <physchem_compliance>  (65) 
0.0000

>  <toxic_score>  (65) 
0.8000

$$$$

     RDKit          2D

 34 37  0  0  1  0  0  0  0  0999 V2000
    3.1220   -1.3344    0.0000 O   0  0  0  0  0  0  0  0  0  0  0  0
    2.5902   -0.7037    0.0000 C   0  0  0  0  0  0  0  0  0  0  0  0
    2.8705    0.0722    0.0000 C   0  0  0  0  0  0  0  0  0  0  0  0
    3.6826    0.2174    0.0000 C   0  0  0  0  0  0  0  0  0  0  0  0
    3.9629    0.9934    0.0000 C   0  0  0  0  0  0  0  0  0  0  0  0
    4.3228    1.7357    0.0000 C   0  0  0  0  0  0  0  0  0  0  0  0
    4.7875    0.9666    0.0000 C   0  0  0  0  0  0  0  0  0  0  0  0
    5.2939    1.6179    0.0000 C   0  0  0  0  0  0  0  0  0  0  0  0
    6.1111    1.5050    0.0000 C   0  0  0  0  0  0  0  0  0  0  0  0
    6.6175    2.1564    0.0000 C   0  0  0  0  0  0  0  0  0  0  0  0
    7.4347    2.0435    0.0000 C   0  0  0  0  0  0  0  0  0  0  0  0
    7.9411    2.6948    0.0000 O   0  0  0  0  0  0  0  0  0  0  0  0
    7.7456    1.2793    0.0000 O   0  0  0  0  0  0  0  0  0  0  0  0
    4.9830    2.3821    0.0000 C   0  0  0  0  0  0  0  0  0  0  0  0
    5.0168    0.1741    0.0000 C   0  0  0  0  0  0  0  0  0  0  0  0
    4.3340   -0.2889    0.0000 C   0  0  0  0  0  0  0  0  0  0  0  0
    5.5977    0.8111    0.0000 H   0  0  0  0  0  0  0  0  0  0  0  0
    3.4311    1.6241    0.0000 C   0  0  0  0  0  0  0  0  0  0  0  0
    3.7114    2.4000    0.0000 O   0  0  0  0  0  0  0  0  0  0  0  0
    2.6190    1.4789    0.0000 C   0  0  0  0  0  0  0  0  0  0  0  0
    2.3387    0.7029    0.0000 C   0  0  0  0  0  0  0  0  0  0  0  0
    1.5266    0.5577    0.0000 C   0  0  0  0  0  0  0  0  0  0  0  0
    1.8069    1.3336    0.0000 C   0  0  0  0  0  0  0  0  0  0  0  0
    1.2463   -0.2182    0.0000 C   0  0  0  0  0  0  0  0  0  0  0  0
    1.7781   -0.8489    0.0000 C   0  0  0  0  0  0  0  0  0  0  0  0
    0.4342   -0.3634    0.0000 C   0  0  0  0  0  0  0  0  0  0  0  0
   -0.0976    0.2673    0.0000 C   0  0  0  0  0  0  0  0  0  0  0  0
   -0.9098    0.1221    0.0000 O   0  0  0  0  0  0  0  0  0  0  0  0
    0.1827    1.0432    0.0000 C   0  0  0  0  0  0  0  0  0  0  0  0
    0.9948    1.1884    0.0000 C   0  0  0  0  0  0  0  0  0  0  0  0
    0.9660   -0.9941    0.0000 H   0  0  0  0  0  0  0  0  0  0  0  0
    2.0584   -0.0730    0.0000 H   0  0  0  0  0  0  0  0  0  0  0  0
    3.1508    0.8481    0.0000 H   0  0  0  0  0  0  0  0  0  0  0  0
    3.4023   -0.5585    0.0000 H   0  0  0  0  0  0  0  0  0  0  0  0
  2  1  1  6
  3  2  1  0
  3  4  1  0
  4  5  1  0
  5  6  1  1
  5  7  1  0
  7  8  1  0
  8  9  1  0
  9 10  1  0
 10 11  1  0
 11 12  1  0
 11 13  2  0
  8 14  1  6
  7 15  1  0
 15 16  1  0
  4 16  1  0
  7 17  1  6
  5 18  1  0
 18 19  1  6
 18 20  1  0
 21 20  1  0
  3 21  1  0
 21 22  1  0
 22 23  1  1
 22 24  1  0
 24 25  1  0
  2 25  1  0
 24 26  1  0
 26 27  1  0
 27 28  2  0
 27 29  1  0
 29 30  1  0
 22 30  1  0
 24 31  1  1
 21 32  1  6
  4 33  1  6
  3 34  1  1
M  END
>  <ID>  (66) 
T19124

>  <CAS>  (66) 
2304-89-4

>  <Formula>  (66) 
C24H38O5

>  <MolWt>  (66) 
406.56

>  <rank>  (66) 
66

>  <final_score>  (66) 
0.0000

>  <max_tc>  (66) 
0.3125

>  <best_match>  (66) 
Obeticholic acid (OCA)

>  <best_target>  (66) 
FXR

>  <physchem_compliance>  (66) 
0.0000

>  <toxic_score>  (66) 
0.8000

$$$$

     RDKit          2D

 33 36  0  0  1  0  0  0  0  0999 V2000
    4.3228    1.7357    0.0000 C   0  0  0  0  0  0  0  0  0  0  0  0
    3.9629    0.9934    0.0000 C   0  0  0  0  0  0  0  0  0  0  0  0
    3.6826    0.2174    0.0000 C   0  0  0  0  0  0  0  0  0  0  0  0
    2.8705    0.0722    0.0000 C   0  0  0  0  0  0  0  0  0  0  0  0
    2.3387    0.7029    0.0000 C   0  0  0  0  0  0  0  0  0  0  0  0
    1.5266    0.5577    0.0000 C   0  0  0  0  0  0  0  0  0  0  0  0
    1.8069    1.3336    0.0000 C   0  0  0  0  0  0  0  0  0  0  0  0
    1.2463   -0.2182    0.0000 C   0  0  0  0  0  0  0  0  0  0  0  0
    1.7781   -0.8489    0.0000 C   0  0  0  0  0  0  0  0  0  0  0  0
    2.5902   -0.7037    0.0000 C   0  0  0  0  0  0  0  0  0  0  0  0
    0.4342   -0.3634    0.0000 C   0  0  0  0  0  0  0  0  0  0  0  0
   -0.0976    0.2673    0.0000 C   0  0  0  0  0  0  0  0  0  0  0  0
   -0.9098    0.1221    0.0000 O   0  0  0  0  0  0  0  0  0  0  0  0
    0.1827    1.0432    0.0000 C   0  0  0  0  0  0  0  0  0  0  0  0
    0.9948    1.1884    0.0000 C   0  0  0  0  0  0  0  0  0  0  0  0
    0.9660   -0.9941    0.0000 H   0  0  0  0  0  0  0  0  0  0  0  0
    2.6190    1.4789    0.0000 C   0  0  0  0  0  0  0  0  0  0  0  0
    3.4311    1.6241    0.0000 C   0  0  0  0  0  0  0  0  0  0  0  0
    3.7114    2.4000    0.0000 O   0  0  0  0  0  0  0  0  0  0  0  0
    2.1935    1.5150    0.0000 H   0  0  0  0  0  0  0  0  0  0  0  0
    2.0584   -0.0730    0.0000 H   0  0  0  0  0  0  0  0  0  0  0  0
    4.3340   -0.2889    0.0000 C   0  0  0  0  0  0  0  0  0  0  0  0
    5.0168    0.1741    0.0000 C   0  0  0  0  0  0  0  0  0  0  0  0
    4.7875    0.9666    0.0000 C   0  0  0  0  0  0  0  0  0  0  0  0
    5.2939    1.6179    0.0000 C   0  0  0  0  0  0  0  0  0  0  0  0
    6.1111    1.5050    0.0000 C   0  0  0  0  0  0  0  0  0  0  0  0
    6.6175    2.1564    0.0000 C   0  0  0  0  0  0  0  0  0  0  0  0
    7.4347    2.0435    0.0000 C   0  0  0  0  0  0  0  0  0  0  0  0
    7.9411    2.6948    0.0000 O   0  0  0  0  0  0  0  0  0  0  0  0
    7.7456    1.2793    0.0000 O   0  0  0  0  0  0  0  0  0  0  0  0
    4.9830    2.3821    0.0000 C   0  0  0  0  0  0  0  0  0  0  0  0
    5.5977    0.8111    0.0000 H   0  0  0  0  0  0  0  0  0  0  0  0
    3.1508    0.8481    0.0000 H   0  0  0  0  0  0  0  0  0  0  0  0
  2  1  1  1
  2  3  1  0
  3  4  1  0
  4  5  1  0
  5  6  1  0
  6  7  1  1
  6  8  1  0
  8  9  1  0
  9 10  1  0
  4 10  1  0
  8 11  1  0
 12 11  1  0
 12 13  1  6
 12 14  1  0
 14 15  1  0
  6 15  1  0
  8 16  1  1
  5 17  1  0
 18 17  1  0
  2 18  1  0
 18 19  1  1
  5 20  1  6
  4 21  1  1
  3 22  1  0
 22 23  1  0
 24 23  1  0
  2 24  1  0
 24 25  1  0
 25 26  1  0
 26 27  1  0
 27 28  1  0
 28 29  1  0
 28 30  2  0
 25 31  1  6
 24 32  1  6
  3 33  1  6
M  END
>  <ID>  (67) 
T13505

>  <CAS>  (67) 
570-62-7

>  <Formula>  (67) 
C24H40O4

>  <MolWt>  (67) 
392.57

>  <rank>  (67) 
67

>  <final_score>  (67) 
0.0000

>  <max_tc>  (67) 
0.4085

>  <best_match>  (67) 
Obeticholic acid (OCA)

>  <best_target>  (67) 
FXR

>  <physchem_compliance>  (67) 
0.0000

>  <toxic_score>  (67) 
0.8000

$$$$

     RDKit          2D

 33 36  0  0  1  0  0  0  0  0999 V2000
    0.2399   -3.8325    0.0000 C   0  0  0  0  0  0  0  0  0  0  0  0
   -0.3732   -4.3845    0.0000 C   0  0  0  0  0  0  0  0  0  0  0  0
   -0.9252   -4.9976    0.0000 C   0  0  0  0  0  0  0  0  0  0  0  0
   -0.5127   -5.7121    0.0000 C   0  0  0  0  0  0  0  0  0  0  0  0
    0.2943   -5.5405    0.0000 C   0  0  0  0  0  0  0  0  0  0  0  0
    0.3805   -4.7201    0.0000 C   0  0  0  0  0  0  0  0  0  0  0  0
    1.0724   -5.1694    0.0000 H   0  0  0  0  0  0  0  0  0  0  0  0
    1.0950   -4.3076    0.0000 C   0  0  0  0  0  0  0  0  0  0  0  0
    1.0950   -3.4826    0.0000 C   0  0  0  0  0  0  0  0  0  0  0  0
    1.8094   -4.7201    0.0000 C   0  0  0  0  0  0  0  0  0  0  0  0
    2.5239   -4.3076    0.0000 C   0  0  0  0  0  0  0  0  0  0  0  0
    3.2384   -4.7201    0.0000 C   0  0  0  0  0  0  0  0  0  0  0  0
    3.9529   -4.3076    0.0000 O   0  0  0  0  0  0  0  0  0  0  0  0
    3.2384   -5.5451    0.0000 O   0  0  0  0  0  0  0  0  0  0  0  0
   -1.1801   -4.2130    0.0000 H   0  0  0  0  0  0  0  0  0  0  0  0
   -1.7322   -4.8261    0.0000 C   0  0  0  0  0  0  0  0  0  0  0  0
   -2.5391   -4.6545    0.0000 H   0  0  0  0  0  0  0  0  0  0  0  0
   -1.9871   -4.0415    0.0000 C   0  0  0  0  0  0  0  0  0  0  0  0
   -1.4351   -3.4284    0.0000 C   0  0  0  0  0  0  0  0  0  0  0  0
   -0.6281   -3.5999    0.0000 C   0  0  0  0  0  0  0  0  0  0  0  0
   -1.8156   -3.2345    0.0000 H   0  0  0  0  0  0  0  0  0  0  0  0
   -2.7941   -3.8699    0.0000 C   0  0  0  0  0  0  0  0  0  0  0  0
   -3.3461   -4.4830    0.0000 C   0  0  0  0  0  0  0  0  0  0  0  0
   -4.1531   -4.3115    0.0000 C   0  0  0  0  0  0  0  0  0  0  0  0
   -4.4080   -3.5269    0.0000 C   0  0  0  0  0  0  0  0  0  0  0  0
   -3.8560   -2.9138    0.0000 C   0  0  0  0  0  0  0  0  0  0  0  0
   -3.0490   -3.0853    0.0000 C   0  0  0  0  0  0  0  0  0  0  0  0
   -5.2150   -3.3553    0.0000 O   0  0  0  0  0  0  0  0  0  0  0  0
   -3.8982   -5.0961    0.0000 H   0  0  0  0  0  0  0  0  0  0  0  0
   -3.0912   -5.2676    0.0000 C   0  0  0  0  0  0  0  0  0  0  0  0
   -2.2842   -5.4392    0.0000 C   0  0  0  0  0  0  0  0  0  0  0  0
   -2.0293   -6.2238    0.0000 O   0  0  0  0  0  0  0  0  0  0  0  0
   -2.2421   -3.2568    0.0000 C   0  0  0  0  0  0  0  0  0  0  0  0
  2  1  1  1
  3  2  1  0
  3  4  1  0
  4  5  1  0
  6  5  1  0
  2  6  1  0
  6  7  1  6
  6  8  1  0
  8  9  1  6
  8 10  1  0
 10 11  1  0
 11 12  1  0
 12 13  1  0
 12 14  2  0
  3 15  1  6
 16  3  1  0
 16 17  1  1
 16 18  1  0
 18 19  1  0
 19 20  1  0
  2 20  1  0
 18 21  1  6
 18 22  1  0
 22 23  1  0
 23 24  1  0
 25 24  1  0
 25 26  1  0
 26 27  1  0
 22 27  1  0
 25 28  1  6
 23 29  1  1
 23 30  1  0
 31 30  1  0
 16 31  1  0
 31 32  1  6
 22 33  1  1
M  CHG  1  13  -1
M  END
>  <ID>  (68) 
T65070

>  <CAS>  (68) 
2646-38-0

>  <Formula>  (68) 
C24H39NaO4

>  <MolWt>  (68) 
414.55

>  <rank>  (68) 
68

>  <final_score>  (68) 
0.0000

>  <max_tc>  (68) 
0.3288

>  <best_match>  (68) 
Obeticholic acid (OCA)

>  <best_target>  (68) 
FXR

>  <physchem_compliance>  (68) 
0.0000

>  <toxic_score>  (68) 
0.8000

$$$$

     RDKit          2D

 33 36  0  0  1  0  0  0  0  0999 V2000
    1.8069   -2.9836    0.0000 C   0  0  0  0  0  0  0  0  0  0  0  0
    1.5266   -2.2077    0.0000 C   0  0  0  0  0  0  0  0  0  0  0  0
    2.3387   -2.3529    0.0000 C   0  0  0  0  0  0  0  0  0  0  0  0
    2.8705   -1.7222    0.0000 C   0  0  0  0  0  0  0  0  0  0  0  0
    3.6826   -1.8674    0.0000 C   0  0  0  0  0  0  0  0  0  0  0  0
    3.9629   -2.6434    0.0000 C   0  0  0  0  0  0  0  0  0  0  0  0
    4.3228   -3.3857    0.0000 C   0  0  0  0  0  0  0  0  0  0  0  0
    3.4311   -3.2741    0.0000 C   0  0  0  0  0  0  0  0  0  0  0  0
    3.7114   -4.0500    0.0000 O   0  0  0  0  0  0  0  0  0  0  0  0
    2.6190   -3.1289    0.0000 C   0  0  0  0  0  0  0  0  0  0  0  0
    4.7875   -2.6166    0.0000 C   0  0  0  0  0  0  0  0  0  0  0  0
    5.2939   -3.2679    0.0000 C   0  0  0  0  0  0  0  0  0  0  0  0
    6.1111   -3.1550    0.0000 C   0  0  0  0  0  0  0  0  0  0  0  0
    6.6175   -3.8064    0.0000 C   0  0  0  0  0  0  0  0  0  0  0  0
    7.4347   -3.6935    0.0000 O   0  0  0  0  0  0  0  0  0  0  0  0
    6.3066   -4.5705    0.0000 O   0  0  0  0  0  0  0  0  0  0  0  0
    4.9830   -4.0321    0.0000 C   0  0  0  0  0  0  0  0  0  0  0  0
    5.0168   -1.8241    0.0000 C   0  0  0  0  0  0  0  0  0  0  0  0
    4.3340   -1.3611    0.0000 C   0  0  0  0  0  0  0  0  0  0  0  0
    5.5977   -2.4611    0.0000 H   0  0  0  0  0  0  0  0  0  0  0  0
    3.1508   -2.4981    0.0000 H   0  0  0  0  0  0  0  0  0  0  0  0
    2.5902   -0.9463    0.0000 C   0  0  0  0  0  0  0  0  0  0  0  0
    3.1220   -0.3156    0.0000 O   0  0  0  0  0  0  0  0  0  0  0  0
    1.7781   -0.8011    0.0000 C   0  0  0  0  0  0  0  0  0  0  0  0
    1.2463   -1.4318    0.0000 C   0  0  0  0  0  0  0  0  0  0  0  0
    0.4342   -1.2866    0.0000 C   0  0  0  0  0  0  0  0  0  0  0  0
   -0.0976   -1.9173    0.0000 C   0  0  0  0  0  0  0  0  0  0  0  0
   -0.9098   -1.7721    0.0000 O   0  0  0  0  0  0  0  0  0  0  0  0
    0.1827   -2.6932    0.0000 C   0  0  0  0  0  0  0  0  0  0  0  0
    0.9948   -2.8384    0.0000 C   0  0  0  0  0  0  0  0  0  0  0  0
    0.7145   -2.0625    0.0000 H   0  0  0  0  0  0  0  0  0  0  0  0
    3.4023   -1.0915    0.0000 H   0  0  0  0  0  0  0  0  0  0  0  0
    2.0584   -1.5770    0.0000 H   0  0  0  0  0  0  0  0  0  0  0  0
  2  1  1  6
  3  2  1  0
  4  3  1  0
  4  5  1  0
  5  6  1  0
  6  7  1  6
  6  8  1  0
  8  9  1  1
  8 10  1  0
  3 10  1  0
  6 11  1  0
 11 12  1  0
 12 13  1  0
 13 14  1  0
 14 15  1  0
 14 16  2  0
 12 17  1  1
 11 18  1  0
 18 19  1  0
  5 19  1  0
 11 20  1  1
  5 21  1  1
  4 22  1  0
 22 23  1  1
 22 24  1  0
 25 24  1  0
  2 25  1  0
 25 26  1  0
 27 26  1  0
 27 28  1  1
 27 29  1  0
 29 30  1  0
  2 30  1  0
 25 31  1  6
  4 32  1  6
  3 33  1  1
M  END
>  <ID>  (69) 
T37177

>  <CAS>  (69) 
60696-62-0

>  <Formula>  (69) 
C23H38O5

>  <MolWt>  (69) 
394.54

>  <rank>  (69) 
69

>  <final_score>  (69) 
0.0000

>  <max_tc>  (69) 
0.3067

>  <best_match>  (69) 
Obeticholic acid (OCA)

>  <best_target>  (69) 
FXR

>  <physchem_compliance>  (69) 
0.0000

>  <toxic_score>  (69) 
0.8000

$$$$

     RDKit          2D

 37 40  0  0  1  0  0  0  0  0999 V2000
    4.3228    1.7357    0.0000 C   0  0  0  0  0  0  0  0  0  0  0  0
    3.9629    0.9934    0.0000 C   0  0  0  0  0  0  0  0  0  0  0  0
    3.6826    0.2174    0.0000 C   0  0  0  0  0  0  0  0  0  0  0  0
    2.8705    0.0722    0.0000 C   0  0  0  0  0  0  0  0  0  0  0  0
    2.3387    0.7029    0.0000 C   0  0  0  0  0  0  0  0  0  0  0  0
    1.5266    0.5577    0.0000 C   0  0  0  0  0  0  0  0  0  0  0  0
    1.8069    1.3336    0.0000 C   0  0  0  0  0  0  0  0  0  0  0  0
    1.2463   -0.2182    0.0000 C   0  0  0  0  0  0  0  0  0  0  0  0
    1.7781   -0.8489    0.0000 C   0  0  0  0  0  0  0  0  0  0  0  0
    2.5902   -0.7037    0.0000 C   0  0  0  0  0  0  0  0  0  0  0  0
    3.1220   -1.3344    0.0000 O   0  0  0  0  0  0  0  0  0  0  0  0
    0.4342   -0.3634    0.0000 C   0  0  0  0  0  0  0  0  0  0  0  0
   -0.0976    0.2673    0.0000 C   0  0  0  0  0  0  0  0  0  0  0  0
   -0.9098    0.1221    0.0000 O   0  0  0  0  0  0  0  0  0  0  0  0
    0.1827    1.0432    0.0000 C   0  0  0  0  0  0  0  0  0  0  0  0
    0.9948    1.1884    0.0000 C   0  0  0  0  0  0  0  0  0  0  0  0
   -0.0095    1.8455    0.0000 H   0  0  0  0  0  0  0  0  0  0  0  0
   -0.5757    1.3681    0.0000 H   0  0  0  0  0  0  0  0  0  0  0  0
   -0.3404   -0.6475    0.0000 H   0  0  0  0  0  0  0  0  0  0  0  0
    0.0234   -1.0789    0.0000 H   0  0  0  0  0  0  0  0  0  0  0  0
    0.9660   -0.9941    0.0000 H   0  0  0  0  0  0  0  0  0  0  0  0
    2.6190    1.4789    0.0000 C   0  0  0  0  0  0  0  0  0  0  0  0
    3.4311    1.6241    0.0000 C   0  0  0  0  0  0  0  0  0  0  0  0
    2.1935    1.5150    0.0000 H   0  0  0  0  0  0  0  0  0  0  0  0
    2.0584   -0.0730    0.0000 H   0  0  0  0  0  0  0  0  0  0  0  0
    4.3340   -0.2889    0.0000 C   0  0  0  0  0  0  0  0  0  0  0  0
    5.0168    0.1741    0.0000 C   0  0  0  0  0  0  0  0  0  0  0  0
    4.7875    0.9666    0.0000 C   0  0  0  0  0  0  0  0  0  0  0  0
    5.2939    1.6179    0.0000 C   0  0  0  0  0  0  0  0  0  0  0  0
    6.1111    1.5050    0.0000 C   0  0  0  0  0  0  0  0  0  0  0  0
    6.6175    2.1564    0.0000 C   0  0  0  0  0  0  0  0  0  0  0  0
    7.4347    2.0435    0.0000 C   0  0  0  0  0  0  0  0  0  0  0  0
    7.9411    2.6948    0.0000 O   0  0  0  0  0  0  0  0  0  0  0  0
    7.7456    1.2793    0.0000 O   0  0  0  0  0  0  0  0  0  0  0  0
    4.9830    2.3821    0.0000 C   0  0  0  0  0  0  0  0  0  0  0  0
    5.5977    0.8111    0.0000 H   0  0  0  0  0  0  0  0  0  0  0  0
    3.1508    0.8481    0.0000 H   0  0  0  0  0  0  0  0  0  0  0  0
  2  1  1  1
  3  2  1  0
  4  3  1  0
  4  5  1  0
  5  6  1  0
  6  7  1  1
  6  8  1  0
  8  9  1  0
 10  9  1  0
  4 10  1  0
 10 11  1  1
  8 12  1  0
 13 12  1  0
 13 14  1  6
 13 15  1  0
 15 16  1  0
  6 16  1  0
 15 17  1  0
 15 18  1  0
 12 19  1  0
 12 20  1  0
  8 21  1  1
  5 22  1  0
 22 23  1  0
  2 23  1  0
  5 24  1  6
  4 25  1  1
  3 26  1  0
 26 27  1  0
 28 27  1  0
  2 28  1  0
 28 29  1  0
 29 30  1  0
 30 31  1  0
 31 32  1  0
 32 33  1  0
 32 34  2  0
 29 35  1  6
 28 36  1  6
  3 37  1  6
M  ISO  4  17   2  18   2  19   2  20   2
M  END
>  <ID>  (70) 
TMIH-0590

>  <CAS>  (70) 
347841-46-7

>  <Formula>  (70) 
C24H40O4

>  <MolWt>  (70) 
396.6

>  <rank>  (70) 
70

>  <final_score>  (70) 
0.0000

>  <max_tc>  (70) 
0.3467

>  <best_match>  (70) 
Obeticholic acid (OCA)

>  <best_target>  (70) 
FXR

>  <physchem_compliance>  (70) 
0.0000

>  <toxic_score>  (70) 
0.6000

$$$$

     RDKit          2D

 32 35  0  0  1  0  0  0  0  0999 V2000
    4.3228    1.7357    0.0000 C   0  0  0  0  0  0  0  0  0  0  0  0
    3.9629    0.9934    0.0000 C   0  0  0  0  0  0  0  0  0  0  0  0
    3.6826    0.2174    0.0000 C   0  0  0  0  0  0  0  0  0  0  0  0
    2.8705    0.0722    0.0000 C   0  0  0  0  0  0  0  0  0  0  0  0
    2.3387    0.7029    0.0000 C   0  0  0  0  0  0  0  0  0  0  0  0
    2.6190    1.4789    0.0000 C   0  0  0  0  0  0  0  0  0  0  0  0
    3.4311    1.6241    0.0000 C   0  0  0  0  0  0  0  0  0  0  0  0
    3.7114    2.4000    0.0000 O   0  0  0  0  0  0  0  0  0  0  0  0
    1.5266    0.5577    0.0000 C   0  0  0  0  0  0  0  0  0  0  0  0
    1.8069    1.3336    0.0000 C   0  0  0  0  0  0  0  0  0  0  0  0
    1.2463   -0.2182    0.0000 C   0  0  0  0  0  0  0  0  0  0  0  0
    1.7781   -0.8489    0.0000 C   0  0  0  0  0  0  0  0  0  0  0  0
    2.5902   -0.7037    0.0000 C   0  0  0  0  0  0  0  0  0  0  0  0
    0.4342   -0.3634    0.0000 C   0  0  0  0  0  0  0  0  0  0  0  0
   -0.0976    0.2673    0.0000 C   0  0  0  0  0  0  0  0  0  0  0  0
   -0.9098    0.1221    0.0000 O   0  0  0  0  0  0  0  0  0  0  0  0
    0.1827    1.0432    0.0000 C   0  0  0  0  0  0  0  0  0  0  0  0
    0.9948    1.1884    0.0000 C   0  0  0  0  0  0  0  0  0  0  0  0
    0.9660   -0.9941    0.0000 H   0  0  0  0  0  0  0  0  0  0  0  0
    2.1935    1.5150    0.0000 H   0  0  0  0  0  0  0  0  0  0  0  0
    2.0584   -0.0730    0.0000 H   0  0  0  0  0  0  0  0  0  0  0  0
    4.3340   -0.2889    0.0000 C   0  0  0  0  0  0  0  0  0  0  0  0
    5.0168    0.1741    0.0000 C   0  0  0  0  0  0  0  0  0  0  0  0
    4.7875    0.9666    0.0000 C   0  0  0  0  0  0  0  0  0  0  0  0
    5.2939    1.6179    0.0000 C   0  0  0  0  0  0  0  0  0  0  0  0
    4.9830    2.3821    0.0000 C   0  0  0  0  0  0  0  0  0  0  0  0
    5.4893    3.0334    0.0000 C   0  0  0  0  0  0  0  0  0  0  0  0
    5.1784    3.7976    0.0000 O   0  0  0  0  0  0  0  0  0  0  0  0
    6.3066    2.9205    0.0000 O   0  0  0  0  0  0  0  0  0  0  0  0
    6.1111    1.5050    0.0000 C   0  0  0  0  0  0  0  0  0  0  0  0
    5.5977    0.8111    0.0000 H   0  0  0  0  0  0  0  0  0  0  0  0
    3.1508    0.8481    0.0000 H   0  0  0  0  0  0  0  0  0  0  0  0
  2  1  1  1
  2  3  1  0
  3  4  1  0
  4  5  1  0
  5  6  1  0
  7  6  1  0
  2  7  1  0
  7  8  1  6
  5  9  1  0
  9 10  1  1
  9 11  1  0
 11 12  1  0
 12 13  1  0
  4 13  1  0
 11 14  1  0
 15 14  1  0
 15 16  1  6
 15 17  1  0
 17 18  1  0
  9 18  1  0
 11 19  1  1
  5 20  1  6
  4 21  1  1
  3 22  1  0
 22 23  1  0
 24 23  1  0
  2 24  1  0
 24 25  1  0
 25 26  1  0
 26 27  1  0
 27 28  1  0
 27 29  2  0
 25 30  1  1
 24 31  1  6
  3 32  1  6
M  END
>  <ID>  (71) 
T78495

>  <CAS>  (71) 
53608-86-9

>  <Formula>  (71) 
C23H38O4

>  <MolWt>  (71) 
378.55

>  <rank>  (71) 
71

>  <final_score>  (71) 
0.0000

>  <max_tc>  (71) 
0.3243

>  <best_match>  (71) 
Obeticholic acid (OCA)

>  <best_target>  (71) 
FXR

>  <physchem_compliance>  (71) 
0.0000

>  <toxic_score>  (71) 
0.8000

$$$$

     RDKit          2D

 33 36  0  0  1  0  0  0  0  0999 V2000
    4.3228    1.7357    0.0000 C   0  0  0  0  0  0  0  0  0  0  0  0
    3.9629    0.9934    0.0000 C   0  0  0  0  0  0  0  0  0  0  0  0
    3.6826    0.2174    0.0000 C   0  0  0  0  0  0  0  0  0  0  0  0
    2.8705    0.0722    0.0000 C   0  0  0  0  0  0  0  0  0  0  0  0
    2.3387    0.7029    0.0000 C   0  0  0  0  0  0  0  0  0  0  0  0
    1.5266    0.5577    0.0000 C   0  0  0  0  0  0  0  0  0  0  0  0
    1.8069    1.3336    0.0000 C   0  0  0  0  0  0  0  0  0  0  0  0
    1.2463   -0.2182    0.0000 C   0  0  0  0  0  0  0  0  0  0  0  0
    1.7781   -0.8489    0.0000 C   0  0  0  0  0  0  0  0  0  0  0  0
    2.5902   -0.7037    0.0000 C   0  0  0  0  0  0  0  0  0  0  0  0
    3.1220   -1.3344    0.0000 O   0  0  0  0  0  0  0  0  0  0  0  0
    0.4342   -0.3634    0.0000 C   0  0  0  0  0  0  0  0  0  0  0  0
   -0.0976    0.2673    0.0000 C   0  0  0  0  0  0  0  0  0  0  0  0
   -0.9098    0.1221    0.0000 O   0  0  0  0  0  0  0  0  0  0  0  0
    0.1827    1.0432    0.0000 C   0  0  0  0  0  0  0  0  0  0  0  0
    0.9948    1.1884    0.0000 C   0  0  0  0  0  0  0  0  0  0  0  0
    0.9660   -0.9941    0.0000 H   0  0  0  0  0  0  0  0  0  0  0  0
    2.6190    1.4789    0.0000 C   0  0  0  0  0  0  0  0  0  0  0  0
    3.4311    1.6241    0.0000 C   0  0  0  0  0  0  0  0  0  0  0  0
    2.1935    1.5150    0.0000 H   0  0  0  0  0  0  0  0  0  0  0  0
    2.0584   -0.0730    0.0000 H   0  0  0  0  0  0  0  0  0  0  0  0
    4.3340   -0.2889    0.0000 C   0  0  0  0  0  0  0  0  0  0  0  0
    5.0168    0.1741    0.0000 C   0  0  0  0  0  0  0  0  0  0  0  0
    4.7875    0.9666    0.0000 C   0  0  0  0  0  0  0  0  0  0  0  0
    5.2939    1.6179    0.0000 C   0  0  0  0  0  0  0  0  0  0  0  0
    6.1111    1.5050    0.0000 C   0  0  0  0  0  0  0  0  0  0  0  0
    6.6175    2.1564    0.0000 C   0  0  0  0  0  0  0  0  0  0  0  0
    7.4347    2.0435    0.0000 C   0  0  0  0  0  0  0  0  0  0  0  0
    7.9411    2.6948    0.0000 O   0  0  0  0  0  0  0  0  0  0  0  0
    7.7456    1.2793    0.0000 O   0  0  0  0  0  0  0  0  0  0  0  0
    4.9830    2.3821    0.0000 C   0  0  0  0  0  0  0  0  0  0  0  0
    5.5977    0.8111    0.0000 H   0  0  0  0  0  0  0  0  0  0  0  0
    3.1508    0.8481    0.0000 H   0  0  0  0  0  0  0  0  0  0  0  0
  2  1  1  1
  3  2  1  0
  4  3  1  0
  4  5  1  0
  5  6  1  0
  6  7  1  1
  6  8  1  0
  8  9  1  0
 10  9  1  0
  4 10  1  0
 10 11  1  6
  8 12  1  0
 13 12  1  0
 13 14  1  1
 13 15  1  0
 15 16  1  0
  6 16  1  0
  8 17  1  1
  5 18  1  0
 18 19  1  0
  2 19  1  0
  5 20  1  6
  4 21  1  1
  3 22  1  0
 22 23  1  0
 24 23  1  0
  2 24  1  0
 24 25  1  0
 25 26  1  0
 26 27  1  0
 27 28  1  0
 28 29  1  0
 28 30  2  0
 25 31  1  6
 24 32  1  6
  3 33  1  6
M  END
>  <ID>  (72) 
T207107

>  <CAS>  (72) 
566-24-5

>  <Formula>  (72) 
C24H40O4

>  <MolWt>  (72) 
392.57

>  <rank>  (72) 
72

>  <final_score>  (72) 
0.0000

>  <max_tc>  (72) 
0.4118

>  <best_match>  (72) 
Obeticholic acid (OCA)

>  <best_target>  (72) 
FXR

>  <physchem_compliance>  (72) 
0.0000

>  <toxic_score>  (72) 
0.8000

$$$$

     RDKit          2D

 33 36  0  0  1  0  0  0  0  0999 V2000
    4.3228    1.7357    0.0000 C   0  0  0  0  0  0  0  0  0  0  0  0
    3.9629    0.9934    0.0000 C   0  0  0  0  0  0  0  0  0  0  0  0
    3.6826    0.2174    0.0000 C   0  0  0  0  0  0  0  0  0  0  0  0
    2.8705    0.0722    0.0000 C   0  0  0  0  0  0  0  0  0  0  0  0
    2.3387    0.7029    0.0000 C   0  0  0  0  0  0  0  0  0  0  0  0
    1.5266    0.5577    0.0000 C   0  0  0  0  0  0  0  0  0  0  0  0
    1.8069    1.3336    0.0000 C   0  0  0  0  0  0  0  0  0  0  0  0
    1.2463   -0.2182    0.0000 C   0  0  0  0  0  0  0  0  0  0  0  0
    1.7781   -0.8489    0.0000 C   0  0  0  0  0  0  0  0  0  0  0  0
    2.5902   -0.7037    0.0000 C   0  0  0  0  0  0  0  0  0  0  0  0
    0.4342   -0.3634    0.0000 C   0  0  0  0  0  0  0  0  0  0  0  0
   -0.0976    0.2673    0.0000 C   0  0  0  0  0  0  0  0  0  0  0  0
   -0.9098    0.1221    0.0000 O   0  0  0  0  0  0  0  0  0  0  0  0
    0.1827    1.0432    0.0000 C   0  0  0  0  0  0  0  0  0  0  0  0
    0.9948    1.1884    0.0000 C   0  0  0  0  0  0  0  0  0  0  0  0
    0.9660   -0.9941    0.0000 H   0  0  0  0  0  0  0  0  0  0  0  0
    2.6190    1.4789    0.0000 C   0  0  0  0  0  0  0  0  0  0  0  0
    3.4311    1.6241    0.0000 C   0  0  0  0  0  0  0  0  0  0  0  0
    3.7114    2.4000    0.0000 O   0  0  0  0  0  0  0  0  0  0  0  0
    2.1935    1.5150    0.0000 H   0  0  0  0  0  0  0  0  0  0  0  0
    2.0584   -0.0730    0.0000 H   0  0  0  0  0  0  0  0  0  0  0  0
    4.3340   -0.2889    0.0000 C   0  0  0  0  0  0  0  0  0  0  0  0
    5.0168    0.1741    0.0000 C   0  0  0  0  0  0  0  0  0  0  0  0
    4.7875    0.9666    0.0000 C   0  0  0  0  0  0  0  0  0  0  0  0
    5.2939    1.6179    0.0000 C   0  0  0  0  0  0  0  0  0  0  0  0
    6.1111    1.5050    0.0000 C   0  0  0  0  0  0  0  0  0  0  0  0
    6.6175    2.1564    0.0000 C   0  0  0  0  0  0  0  0  0  0  0  0
    7.4347    2.0435    0.0000 C   0  0  0  0  0  0  0  0  0  0  0  0
    7.9411    2.6948    0.0000 O   0  0  0  0  0  0  0  0  0  0  0  0
    7.7456    1.2793    0.0000 O   0  0  0  0  0  0  0  0  0  0  0  0
    4.9830    2.3821    0.0000 C   0  0  0  0  0  0  0  0  0  0  0  0
    5.5977    0.8111    0.0000 H   0  0  0  0  0  0  0  0  0  0  0  0
    3.1508    0.8481    0.0000 H   0  0  0  0  0  0  0  0  0  0  0  0
  2  1  1  1
  2  3  1  0
  3  4  1  0
  4  5  1  0
  5  6  1  0
  6  7  1  1
  6  8  1  0
  8  9  1  0
  9 10  1  0
  4 10  1  0
  8 11  1  0
 12 11  1  0
 12 13  1  1
 12 14  1  0
 14 15  1  0
  6 15  1  0
  8 16  1  1
  5 17  1  0
 18 17  1  0
  2 18  1  0
 18 19  1  6
  5 20  1  6
  4 21  1  1
  3 22  1  0
 22 23  1  0
 24 23  1  0
  2 24  1  0
 24 25  1  0
 25 26  1  0
 26 27  1  0
 27 28  1  0
 28 29  1  0
 28 30  2  0
 25 31  1  6
 24 32  1  6
  3 33  1  6
M  END
>  <ID>  (73) 
T84944

>  <CAS>  (73) 
570-63-8

>  <Formula>  (73) 
C24H40O4

>  <MolWt>  (73) 
392.57

>  <rank>  (73) 
73

>  <final_score>  (73) 
0.0000

>  <max_tc>  (73) 
0.4085

>  <best_match>  (73) 
Obeticholic acid (OCA)

>  <best_target>  (73) 
FXR

>  <physchem_compliance>  (73) 
0.0000

>  <toxic_score>  (73) 
0.8000

$$$$

     RDKit          2D

 33 36  0  0  1  0  0  0  0  0999 V2000
    1.8069   -2.9836    0.0000 C   0  0  0  0  0  0  0  0  0  0  0  0
    1.5266   -2.2077    0.0000 C   0  0  0  0  0  0  0  0  0  0  0  0
    2.3387   -2.3529    0.0000 C   0  0  0  0  0  0  0  0  0  0  0  0
    2.8705   -1.7222    0.0000 C   0  0  0  0  0  0  0  0  0  0  0  0
    3.6826   -1.8674    0.0000 C   0  0  0  0  0  0  0  0  0  0  0  0
    3.9629   -2.6434    0.0000 C   0  0  0  0  0  0  0  0  0  0  0  0
    4.3228   -3.3857    0.0000 C   0  0  0  0  0  0  0  0  0  0  0  0
    3.4311   -3.2741    0.0000 C   0  0  0  0  0  0  0  0  0  0  0  0
    2.6190   -3.1289    0.0000 C   0  0  0  0  0  0  0  0  0  0  0  0
    4.7875   -2.6166    0.0000 C   0  0  0  0  0  0  0  0  0  0  0  0
    5.2939   -3.2679    0.0000 C   0  0  0  0  0  0  0  0  0  0  0  0
    6.1111   -3.1550    0.0000 C   0  0  0  0  0  0  0  0  0  0  0  0
    6.6175   -3.8064    0.0000 C   0  0  0  0  0  0  0  0  0  0  0  0
    7.4347   -3.6935    0.0000 C   0  0  0  0  0  0  0  0  0  0  0  0
    7.9411   -4.3448    0.0000 O   0  0  0  0  0  0  0  0  0  0  0  0
    7.7456   -2.9293    0.0000 O   0  0  0  0  0  0  0  0  0  0  0  0
    4.9830   -4.0321    0.0000 C   0  0  0  0  0  0  0  0  0  0  0  0
    5.0168   -1.8241    0.0000 C   0  0  0  0  0  0  0  0  0  0  0  0
    4.3340   -1.3611    0.0000 C   0  0  0  0  0  0  0  0  0  0  0  0
    5.5977   -2.4611    0.0000 H   0  0  0  0  0  0  0  0  0  0  0  0
    3.1508   -2.4981    0.0000 H   0  0  0  0  0  0  0  0  0  0  0  0
    2.5902   -0.9463    0.0000 C   0  0  0  0  0  0  0  0  0  0  0  0
    1.7781   -0.8011    0.0000 C   0  0  0  0  0  0  0  0  0  0  0  0
    1.4978   -0.0252    0.0000 O   0  0  0  0  0  0  0  0  0  0  0  0
    1.2463   -1.4318    0.0000 C   0  0  0  0  0  0  0  0  0  0  0  0
    0.4342   -1.2866    0.0000 C   0  0  0  0  0  0  0  0  0  0  0  0
   -0.0976   -1.9173    0.0000 C   0  0  0  0  0  0  0  0  0  0  0  0
   -0.9098   -1.7721    0.0000 O   0  0  0  0  0  0  0  0  0  0  0  0
    0.1827   -2.6932    0.0000 C   0  0  0  0  0  0  0  0  0  0  0  0
    0.9948   -2.8384    0.0000 C   0  0  0  0  0  0  0  0  0  0  0  0
    0.7145   -2.0625    0.0000 H   0  0  0  0  0  0  0  0  0  0  0  0
    3.4023   -1.0915    0.0000 H   0  0  0  0  0  0  0  0  0  0  0  0
    2.0584   -1.5770    0.0000 H   0  0  0  0  0  0  0  0  0  0  0  0
  2  1  1  6
  2  3  1  0
  3  4  1  0
  4  5  1  0
  5  6  1  0
  6  7  1  6
  6  8  1  0
  8  9  1  0
  3  9  1  0
  6 10  1  0
 10 11  1  0
 11 12  1  0
 12 13  1  0
 13 14  1  0
 14 15  1  0
 14 16  2  0
 11 17  1  1
 10 18  1  0
 18 19  1  0
  5 19  1  0
 10 20  1  1
  5 21  1  1
  4 22  1  0
 22 23  1  0
 23 24  2  0
 25 23  1  0
  2 25  1  0
 25 26  1  0
 27 26  1  0
 27 28  1  1
 27 29  1  0
 29 30  1  0
  2 30  1  0
 25 31  1  6
  4 32  1  6
  3 33  1  1
M  END
>  <ID>  (74) 
T207106

>  <CAS>  (74) 
2393-61-5

>  <Formula>  (74) 
C24H38O4

>  <MolWt>  (74) 
390.56

>  <rank>  (74) 
74

>  <final_score>  (74) 
0.0000

>  <max_tc>  (74) 
0.3889

>  <best_match>  (74) 
Obeticholic acid (OCA)

>  <best_target>  (74) 
FXR

>  <physchem_compliance>  (74) 
0.0000

>  <toxic_score>  (74) 
0.6000

$$$$

     RDKit          2D

 34 37  0  0  1  0  0  0  0  0999 V2000
    3.1220   -1.3344    0.0000 O   0  0  0  0  0  0  0  0  0  0  0  0
    2.5902   -0.7037    0.0000 C   0  0  0  0  0  0  0  0  0  0  0  0
    2.8705    0.0722    0.0000 C   0  0  0  0  0  0  0  0  0  0  0  0
    3.6826    0.2174    0.0000 C   0  0  0  0  0  0  0  0  0  0  0  0
    3.9629    0.9934    0.0000 C   0  0  0  0  0  0  0  0  0  0  0  0
    4.3228    1.7357    0.0000 C   0  0  0  0  0  0  0  0  0  0  0  0
    4.7875    0.9666    0.0000 C   0  0  0  0  0  0  0  0  0  0  0  0
    5.2939    1.6179    0.0000 C   0  0  0  0  0  0  0  0  0  0  0  0
    6.1111    1.5050    0.0000 C   0  0  0  0  0  0  0  0  0  0  0  0
    6.6175    2.1564    0.0000 C   0  0  0  0  0  0  0  0  0  0  0  0
    7.4347    2.0435    0.0000 C   0  0  0  0  0  0  0  0  0  0  0  0
    7.9411    2.6948    0.0000 O   0  0  0  0  0  0  0  0  0  0  0  0
    7.7456    1.2793    0.0000 O   0  0  0  0  0  0  0  0  0  0  0  0
    4.9830    2.3821    0.0000 C   0  0  0  0  0  0  0  0  0  0  0  0
    5.0168    0.1741    0.0000 C   0  0  0  0  0  0  0  0  0  0  0  0
    4.3340   -0.2889    0.0000 C   0  0  0  0  0  0  0  0  0  0  0  0
    5.5977    0.8111    0.0000 H   0  0  0  0  0  0  0  0  0  0  0  0
    3.4311    1.6241    0.0000 C   0  0  0  0  0  0  0  0  0  0  0  0
    3.7114    2.4000    0.0000 O   0  0  0  0  0  0  0  0  0  0  0  0
    2.6190    1.4789    0.0000 C   0  0  0  0  0  0  0  0  0  0  0  0
    2.3387    0.7029    0.0000 C   0  0  0  0  0  0  0  0  0  0  0  0
    1.5266    0.5577    0.0000 C   0  0  0  0  0  0  0  0  0  0  0  0
    1.8069    1.3336    0.0000 C   0  0  0  0  0  0  0  0  0  0  0  0
    1.2463   -0.2182    0.0000 C   0  0  0  0  0  0  0  0  0  0  0  0
    1.7781   -0.8489    0.0000 C   0  0  0  0  0  0  0  0  0  0  0  0
    0.4342   -0.3634    0.0000 C   0  0  0  0  0  0  0  0  0  0  0  0
   -0.0976    0.2673    0.0000 C   0  0  0  0  0  0  0  0  0  0  0  0
   -0.9098    0.1221    0.0000 O   0  0  0  0  0  0  0  0  0  0  0  0
    0.1827    1.0432    0.0000 C   0  0  0  0  0  0  0  0  0  0  0  0
    0.9948    1.1884    0.0000 C   0  0  0  0  0  0  0  0  0  0  0  0
    0.9660   -0.9941    0.0000 H   0  0  0  0  0  0  0  0  0  0  0  0
    2.0584   -0.0730    0.0000 H   0  0  0  0  0  0  0  0  0  0  0  0
    3.1508    0.8481    0.0000 H   0  0  0  0  0  0  0  0  0  0  0  0
    3.4023   -0.5585    0.0000 H   0  0  0  0  0  0  0  0  0  0  0  0
  2  1  1  6
  3  2  1  0
  3  4  1  0
  4  5  1  0
  5  6  1  1
  5  7  1  0
  7  8  1  0
  8  9  1  0
  9 10  1  0
 10 11  1  0
 11 12  1  0
 11 13  2  0
  8 14  1  6
  7 15  1  0
 15 16  1  0
  4 16  1  0
  7 17  1  6
  5 18  1  0
 18 19  2  0
 18 20  1  0
 21 20  1  0
  3 21  1  0
 21 22  1  0
 22 23  1  1
 22 24  1  0
 24 25  1  0
  2 25  1  0
 24 26  1  0
 27 26  1  0
 27 28  1  6
 27 29  1  0
 29 30  1  0
 22 30  1  0
 24 31  1  1
 21 32  1  6
  4 33  1  6
  3 34  1  1
M  END
>  <ID>  (75) 
TN7583

>  <CAS>  (75) 
2458/8/4

>  <Formula>  (75) 
C24H38O5

>  <MolWt>  (75) 
406.56

>  <rank>  (75) 
75

>  <final_score>  (75) 
0.0000

>  <max_tc>  (75) 
0.3733

>  <best_match>  (75) 
Obeticholic acid (OCA)

>  <best_target>  (75) 
FXR

>  <physchem_compliance>  (75) 
0.0000

>  <toxic_score>  (75) 
0.8000

$$$$

     RDKit          2D

 33 36  0  0  1  0  0  0  0  0999 V2000
   -0.0095   -0.6295    0.0000 H   0  0  0  0  0  0  0  0  0  0  0  0
    0.1827   -1.4318    0.0000 C   0  0  0  0  0  0  0  0  0  0  0  0
   -0.5757   -1.1069    0.0000 H   0  0  0  0  0  0  0  0  0  0  0  0
    0.9948   -1.2866    0.0000 C   0  0  0  0  0  0  0  0  0  0  0  0
    1.5266   -1.9173    0.0000 C   0  0  0  0  0  0  0  0  0  0  0  0
    1.8069   -1.1414    0.0000 C   0  0  0  0  0  0  0  0  0  0  0  0
    2.3387   -1.7721    0.0000 C   0  0  0  0  0  0  0  0  0  0  0  0
    2.6190   -0.9961    0.0000 C   0  0  0  0  0  0  0  0  0  0  0  0
    3.4311   -0.8509    0.0000 C   0  0  0  0  0  0  0  0  0  0  0  0
    3.7114   -0.0750    0.0000 O   0  0  0  0  0  0  0  0  0  0  0  0
    3.9629   -1.4816    0.0000 C   0  0  0  0  0  0  0  0  0  0  0  0
    4.3228   -0.7393    0.0000 C   0  0  0  0  0  0  0  0  0  0  0  0
    4.7875   -1.5084    0.0000 C   0  0  0  0  0  0  0  0  0  0  0  0
    5.0168   -2.3009    0.0000 C   0  0  0  0  0  0  0  0  0  0  0  0
    4.3340   -2.7639    0.0000 C   0  0  0  0  0  0  0  0  0  0  0  0
    3.6826   -2.2576    0.0000 C   0  0  0  0  0  0  0  0  0  0  0  0
    2.8705   -2.4028    0.0000 C   0  0  0  0  0  0  0  0  0  0  0  0
    2.5902   -3.1787    0.0000 C   0  0  0  0  0  0  0  0  0  0  0  0
    3.1220   -3.8094    0.0000 O   0  0  0  0  0  0  0  0  0  0  0  0
    1.7781   -3.3239    0.0000 C   0  0  0  0  0  0  0  0  0  0  0  0
    1.2463   -2.6932    0.0000 C   0  0  0  0  0  0  0  0  0  0  0  0
    0.4342   -2.8384    0.0000 C   0  0  0  0  0  0  0  0  0  0  0  0
   -0.1645   -3.4060    0.0000 H   0  0  0  0  0  0  0  0  0  0  0  0
    0.5319   -3.6576    0.0000 H   0  0  0  0  0  0  0  0  0  0  0  0
   -0.0976   -2.2077    0.0000 C   0  0  0  0  0  0  0  0  0  0  0  0
   -0.9098   -2.3529    0.0000 O   0  0  0  0  0  0  0  0  0  0  0  0
    5.2939   -0.8571    0.0000 C   0  0  0  0  0  0  0  0  0  0  0  0
    4.9830   -0.0929    0.0000 C   0  0  0  0  0  0  0  0  0  0  0  0
    6.1111   -0.9700    0.0000 C   0  0  0  0  0  0  0  0  0  0  0  0
    6.6175   -0.3186    0.0000 C   0  0  0  0  0  0  0  0  0  0  0  0
    7.4347   -0.4315    0.0000 C   0  0  0  0  0  0  0  0  0  0  0  0
    7.9411    0.2198    0.0000 O   0  0  0  0  0  0  0  0  0  0  0  0
    7.7456   -1.1957    0.0000 O   0  0  0  0  0  0  0  0  0  0  0  0
  1  2  1  0
  2  3  1  0
  2  4  1  0
  5  4  1  0
  5  6  1  1
  7  5  1  0
  7  8  1  1
  9  8  1  0
  9 10  1  6
 11  9  1  0
 11 12  1  1
 11 13  1  0
 13 14  1  1
 14 15  1  0
 16 15  1  1
 11 16  1  0
 16 17  1  0
 17  7  1  0
 17 18  1  6
 18 19  1  6
 18 20  1  0
 21 20  1  6
  5 21  1  0
 21 22  1  0
 22 23  1  0
 22 24  1  0
 25 22  1  0
 25  2  1  0
 25 26  1  6
 13 27  1  0
 27 28  1  6
 27 29  1  0
 29 30  1  0
 30 31  1  0
 31 32  1  0
 31 33  2  0
M  ISO  4   1   2   3   2  23   2  24   2
M  END
>  <ID>  (76) 
TMIH-0148

>  <CAS>  (76) 
116380-66-6

>  <Formula>  (76) 
C24H36D4O5

>  <MolWt>  (76) 
412.6

>  <rank>  (76) 
76

>  <final_score>  (76) 
0.0000

>  <max_tc>  (76) 
0.6027

>  <best_match>  (76) 
Aramchol

>  <best_target>  (76) 
SCD1

>  <physchem_compliance>  (76) 
0.0000

>  <toxic_score>  (76) 
0.8000

$$$$

     RDKit          2D

 25 26  0  0  0  0  0  0  0  0999 V2000
    1.4289    1.6500    0.0000 O   0  0  0  0  0  0  0  0  0  0  0  0
    1.4289    0.8250    0.0000 P   0  0  0  0  0  0  0  0  0  0  0  0
    0.6039    0.8250    0.0000 O   0  0  0  0  0  0  0  0  0  0  0  0
    2.2539    0.8250    0.0000 O   0  0  0  0  0  0  0  0  0  0  0  0
    1.4289    0.0000    0.0000 C   0  0  0  0  0  0  0  0  0  0  0  0
    2.1434   -0.4125    0.0000 O   0  0  0  0  0  0  0  0  0  0  0  0
    2.1434   -1.2375    0.0000 C   0  0  0  0  0  0  0  0  0  0  0  0
    2.8579   -1.6500    0.0000 C   0  0  0  0  0  0  0  0  0  0  0  0
    2.8579   -2.4750    0.0000 C   0  0  0  0  0  0  0  0  0  0  0  0
    2.1434   -2.8875    0.0000 C   0  0  0  0  0  0  0  0  0  0  0  0
    1.4289   -2.4750    0.0000 C   0  0  0  0  0  0  0  0  0  0  0  0
    1.4289   -1.6500    0.0000 C   0  0  0  0  0  0  0  0  0  0  0  0
    0.7145   -2.8875    0.0000 C   0  0  0  0  0  0  0  0  0  0  0  0
    2.1434   -3.7125    0.0000 C   0  0  0  0  0  0  0  0  0  0  0  0
    1.4289   -4.1250    0.0000 C   0  0  0  0  0  0  0  0  0  0  0  0
    1.4289   -4.9500    0.0000 C   0  0  0  0  0  0  0  0  0  0  0  0
    0.7145   -5.3625    0.0000 C   0  0  0  0  0  0  0  0  0  0  0  0
   -0.0000   -4.9500    0.0000 C   0  0  0  0  0  0  0  0  0  0  0  0
   -0.7145   -5.3625    0.0000 O   0  0  0  0  0  0  0  0  0  0  0  0
   -0.0000   -4.1250    0.0000 C   0  0  0  0  0  0  0  0  0  0  0  0
    0.7145   -3.7125    0.0000 C   0  0  0  0  0  0  0  0  0  0  0  0
   -0.7145   -3.7125    0.0000 C   0  0  0  0  0  0  0  0  0  0  0  0
   -0.7145   -2.8875    0.0000 C   0  0  0  0  0  0  0  0  0  0  0  0
   -1.4289   -4.1250    0.0000 C   0  0  0  0  0  0  0  0  0  0  0  0
    3.5724   -2.8875    0.0000 C   0  0  0  0  0  0  0  0  0  0  0  0
  1  2  2  0
  2  3  1  0
  2  4  1  0
  2  5  1  0
  5  6  1  0
  6  7  1  0
  7  8  1  0
  8  9  2  0
  9 10  1  0
 10 11  2  0
 11 12  1  0
  7 12  2  0
 11 13  1  0
 10 14  1  0
 14 15  1  0
 15 16  1  0
 16 17  2  0
 17 18  1  0
 18 19  1  0
 18 20  2  0
 20 21  1  0
 15 21  2  0
 20 22  1  0
 22 23  1  0
 22 24  1  0
  9 25  1  0
M  END
>  <ID>  (77) 
T11954

>  <CAS>  (77) 
852947-39-8

>  <Formula>  (77) 
C19H25O5P

>  <MolWt>  (77) 
364.37

>  <rank>  (77) 
77

>  <final_score>  (77) 
0.0000

>  <max_tc>  (77) 
0.4658

>  <best_match>  (77) 
VK2809

>  <best_target>  (77) 
THR-beta

>  <physchem_compliance>  (77) 
0.0000

>  <toxic_score>  (77) 
0.6000

$$$$

     RDKit          2D

 39 43  0  0  1  0  0  0  0  0999 V2000
    4.3228    1.7357    0.0000 C   0  0  0  0  0  0  0  0  0  0  0  0
    3.9629    0.9934    0.0000 C   0  0  0  0  0  0  0  0  0  0  0  0
    3.6826    0.2174    0.0000 C   0  0  0  0  0  0  0  0  0  0  0  0
    2.8705    0.0722    0.0000 C   0  0  0  0  0  0  0  0  0  0  0  0
    2.3387    0.7029    0.0000 C   0  0  0  0  0  0  0  0  0  0  0  0
    1.5266    0.5577    0.0000 C   0  0  0  0  0  0  0  0  0  0  0  0
    1.8069    1.3336    0.0000 C   0  0  0  0  0  0  0  0  0  0  0  0
    1.2463   -0.2182    0.0000 C   0  0  0  0  0  0  0  0  0  0  0  0
    1.7781   -0.8489    0.0000 C   0  0  0  0  0  0  0  0  0  0  0  0
    2.5902   -0.7037    0.0000 C   0  0  0  0  0  0  0  0  0  0  0  0
    0.4342   -0.3634    0.0000 C   0  0  0  0  0  0  0  0  0  0  0  0
   -0.0976    0.2673    0.0000 C   0  0  0  0  0  0  0  0  0  0  0  0
   -0.9098    0.1221    0.0000 O   0  0  0  0  0  0  0  0  0  0  0  0
    0.1827    1.0432    0.0000 C   0  0  0  0  0  0  0  0  0  0  0  0
    0.9948    1.1884    0.0000 C   0  0  0  0  0  0  0  0  0  0  0  0
    0.9660   -0.9941    0.0000 H   0  0  0  0  0  0  0  0  0  0  0  0
    2.6190    1.4789    0.0000 C   0  0  0  0  0  0  0  0  0  0  0  0
    3.4311    1.6241    0.0000 C   0  0  0  0  0  0  0  0  0  0  0  0
    2.1935    1.5150    0.0000 H   0  0  0  0  0  0  0  0  0  0  0  0
    2.0584   -0.0730    0.0000 H   0  0  0  0  0  0  0  0  0  0  0  0
    4.3340   -0.2889    0.0000 C   0  0  0  0  0  0  0  0  0  0  0  0
    5.0168    0.1741    0.0000 C   0  0  0  0  0  0  0  0  0  0  0  0
    4.7875    0.9666    0.0000 C   0  0  0  0  0  0  0  0  0  0  0  0
    5.2939    1.6179    0.0000 C   0  0  0  0  0  0  0  0  0  0  0  0
    6.1111    1.5050    0.0000 C   0  0  0  0  0  0  0  0  0  0  0  0
    6.6175    2.1564    0.0000 C   0  0  0  0  0  0  0  0  0  0  0  0
    7.4347    2.0435    0.0000 C   0  0  0  0  0  0  0  0  0  0  0  0
    7.9411    2.6948    0.0000 O   0  0  0  0  0  0  0  0  0  0  0  0
    8.7583    2.5820    0.0000 N   0  0  0  0  0  0  0  0  0  0  0  0
    9.3300    3.1768    0.0000 C   0  0  0  0  0  0  0  0  0  0  0  0
    9.1848    3.9889    0.0000 O   0  0  0  0  0  0  0  0  0  0  0  0
   10.0723    2.8170    0.0000 C   0  0  0  0  0  0  0  0  0  0  0  0
    9.9595    1.9997    0.0000 C   0  0  0  0  0  0  0  0  0  0  0  0
    9.1474    1.8545    0.0000 C   0  0  0  0  0  0  0  0  0  0  0  0
    8.7875    1.1121    0.0000 O   0  0  0  0  0  0  0  0  0  0  0  0
    7.7456    1.2793    0.0000 O   0  0  0  0  0  0  0  0  0  0  0  0
    4.9830    2.3821    0.0000 C   0  0  0  0  0  0  0  0  0  0  0  0
    5.5977    0.8111    0.0000 H   0  0  0  0  0  0  0  0  0  0  0  0
    3.1508    0.8481    0.0000 H   0  0  0  0  0  0  0  0  0  0  0  0
  2  1  1  1
  2  3  1  0
  3  4  1  0
  4  5  1  0
  5  6  1  0
  6  7  1  1
  6  8  1  0
  8  9  1  0
  9 10  1  0
  4 10  1  0
  8 11  1  0
 12 11  1  0
 12 13  1  6
 12 14  1  0
 14 15  1  0
  6 15  1  0
  8 16  1  1
  5 17  1  0
 17 18  1  0
  2 18  1  0
  5 19  1  6
  4 20  1  1
  3 21  1  0
 21 22  1  0
 23 22  1  0
  2 23  1  0
 23 24  1  0
 24 25  1  0
 25 26  1  0
 26 27  1  0
 27 28  1  0
 28 29  1  0
 29 30  1  0
 30 31  2  0
 30 32  1  0
 32 33  1  0
 33 34  1  0
 29 34  1  0
 34 35  2  0
 27 36  2  0
 24 37  1  6
 23 38  1  6
  3 39  1  6
M  END
>  <ID>  (78) 
T32798

>  <CAS>  (78) 
104211-94-1

>  <Formula>  (78) 
C28H43NO5

>  <MolWt>  (78) 
473.65

>  <rank>  (78) 
78

>  <final_score>  (78) 
0.0000

>  <max_tc>  (78) 
0.3049

>  <best_match>  (78) 
Obeticholic acid (OCA)

>  <best_target>  (78) 
FXR

>  <physchem_compliance>  (78) 
0.0000

>  <toxic_score>  (78) 
0.4000

$$$$

     RDKit          2D

 38 41  0  0  1  0  0  0  0  0999 V2000
    1.0789   -3.3295    0.0000 C   0  0  0  0  0  0  0  0  0  0  0  0
    0.2943   -3.0746    0.0000 C   0  0  0  0  0  0  0  0  0  0  0  0
   -0.5127   -2.9031    0.0000 C   0  0  0  0  0  0  0  0  0  0  0  0
   -0.7676   -2.1184    0.0000 C   0  0  0  0  0  0  0  0  0  0  0  0
   -0.2156   -1.5053    0.0000 C   0  0  0  0  0  0  0  0  0  0  0  0
   -0.4705   -0.7207    0.0000 C   0  0  0  0  0  0  0  0  0  0  0  0
    0.3364   -0.8922    0.0000 C   0  0  0  0  0  0  0  0  0  0  0  0
   -1.2775   -0.5492    0.0000 C   0  0  0  0  0  0  0  0  0  0  0  0
   -1.8296   -1.1623    0.0000 C   0  0  0  0  0  0  0  0  0  0  0  0
   -1.5746   -1.9469    0.0000 C   0  0  0  0  0  0  0  0  0  0  0  0
   -1.5325    0.2354    0.0000 C   0  0  0  0  0  0  0  0  0  0  0  0
   -0.9804    0.8485    0.0000 C   0  0  0  0  0  0  0  0  0  0  0  0
   -1.2354    1.6331    0.0000 O   0  0  0  0  0  0  0  0  0  0  0  0
   -0.1735    0.6770    0.0000 C   0  0  0  0  0  0  0  0  0  0  0  0
    0.0815   -0.1076    0.0000 C   0  0  0  0  0  0  0  0  0  0  0  0
   -2.0845   -0.3777    0.0000 H   0  0  0  0  0  0  0  0  0  0  0  0
    0.5914   -1.6769    0.0000 C   0  0  0  0  0  0  0  0  0  0  0  0
    0.8463   -2.4615    0.0000 C   0  0  0  0  0  0  0  0  0  0  0  0
    0.5690   -1.2504    0.0000 H   0  0  0  0  0  0  0  0  0  0  0  0
   -1.0226   -1.3338    0.0000 H   0  0  0  0  0  0  0  0  0  0  0  0
   -0.9252   -3.6175    0.0000 C   0  0  0  0  0  0  0  0  0  0  0  0
   -0.3732   -4.2306    0.0000 C   0  0  0  0  0  0  0  0  0  0  0  0
    0.3805   -3.8951    0.0000 C   0  0  0  0  0  0  0  0  0  0  0  0
    1.0950   -4.3076    0.0000 C   0  0  0  0  0  0  0  0  0  0  0  0
    1.8094   -3.8951    0.0000 C   0  0  0  0  0  0  0  0  0  0  0  0
    2.5239   -4.3076    0.0000 C   0  0  0  0  0  0  0  0  0  0  0  0
    3.2384   -3.8951    0.0000 C   0  0  0  0  0  0  0  0  0  0  0  0
    3.9529   -4.3076    0.0000 N   0  0  0  0  0  0  0  0  0  0  0  0
    4.6673   -3.8951    0.0000 C   0  0  0  0  0  0  0  0  0  0  0  0
    5.3818   -4.3076    0.0000 C   0  0  0  0  0  0  0  0  0  0  0  0
    6.0963   -3.8951    0.0000 S   0  0  0  0  0  0  0  0  0  0  0  0
    6.8107   -3.4826    0.0000 O   0  0  0  0  0  0  0  0  0  0  0  0
    6.5088   -4.6095    0.0000 O   0  0  0  0  0  0  0  0  0  0  0  0
    5.6838   -3.1806    0.0000 O   0  0  0  0  0  0  0  0  0  0  0  0
    3.2384   -3.0701    0.0000 O   0  0  0  0  0  0  0  0  0  0  0  0
    1.0950   -5.1326    0.0000 C   0  0  0  0  0  0  0  0  0  0  0  0
    0.3373   -4.7189    0.0000 H   0  0  0  0  0  0  0  0  0  0  0  0
    0.0393   -2.2900    0.0000 H   0  0  0  0  0  0  0  0  0  0  0  0
  2  1  1  1
  2  3  1  0
  3  4  1  0
  4  5  1  0
  5  6  1  0
  6  7  1  1
  6  8  1  0
  8  9  1  0
  9 10  1  0
  4 10  1  0
  8 11  1  0
 12 11  1  0
 12 13  1  6
 12 14  1  0
 14 15  1  0
  6 15  1  0
  8 16  1  1
  5 17  1  0
 17 18  1  0
  2 18  1  0
  5 19  1  6
  4 20  1  1
  3 21  1  0
 21 22  1  0
 23 22  1  0
  2 23  1  0
 23 24  1  0
 24 25  1  0
 25 26  1  0
 26 27  1  0
 27 28  1  0
 28 29  1  0
 29 30  1  0
 30 31  1  0
 31 32  2  0
 31 33  2  0
 31 34  1  0
 27 35  2  0
 24 36  1  1
 23 37  1  6
  3 38  1  6
M  END
>  <ID>  (79) 
T34788

>  <CAS>  (79) 
516-90-5

>  <Formula>  (79) 
C26H45NO5S

>  <MolWt>  (79) 
483.7

>  <rank>  (79) 
79

>  <final_score>  (79) 
0.0000

>  <max_tc>  (79) 
0.3049

>  <best_match>  (79) 
Obeticholic acid (OCA)

>  <best_target>  (79) 
FXR

>  <physchem_compliance>  (79) 
0.0000

>  <toxic_score>  (79) 
0.6000

$$$$

     RDKit          2D

 37 40  0  0  1  0  0  0  0  0999 V2000
    4.3228    1.7357    0.0000 C   0  0  0  0  0  0  0  0  0  0  0  0
    3.9629    0.9934    0.0000 C   0  0  0  0  0  0  0  0  0  0  0  0
    3.6826    0.2174    0.0000 C   0  0  0  0  0  0  0  0  0  0  0  0
    2.8705    0.0722    0.0000 C   0  0  0  0  0  0  0  0  0  0  0  0
    2.3387    0.7029    0.0000 C   0  0  0  0  0  0  0  0  0  0  0  0
    2.6190    1.4789    0.0000 C   0  0  0  0  0  0  0  0  0  0  0  0
    3.4311    1.6241    0.0000 C   0  0  0  0  0  0  0  0  0  0  0  0
    3.7114    2.4000    0.0000 O   0  0  0  0  0  0  0  0  0  0  0  0
    1.5266    0.5577    0.0000 C   0  0  0  0  0  0  0  0  0  0  0  0
    1.8069    1.3336    0.0000 C   0  0  0  0  0  0  0  0  0  0  0  0
    1.2463   -0.2182    0.0000 C   0  0  0  0  0  0  0  0  0  0  0  0
    1.7781   -0.8489    0.0000 C   0  0  0  0  0  0  0  0  0  0  0  0
    2.5902   -0.7037    0.0000 C   0  0  0  0  0  0  0  0  0  0  0  0
    0.4342   -0.3634    0.0000 C   0  0  0  0  0  0  0  0  0  0  0  0
   -0.0976    0.2673    0.0000 C   0  0  0  0  0  0  0  0  0  0  0  0
   -0.9098    0.1221    0.0000 O   0  0  0  0  0  0  0  0  0  0  0  0
   -1.4416    0.7528    0.0000 S   0  0  0  0  0  0  0  0  0  0  0  0
   -1.9734    1.3835    0.0000 O   0  0  0  0  0  0  0  0  0  0  0  0
   -2.0723    0.2210    0.0000 O   0  0  0  0  0  0  0  0  0  0  0  0
   -0.8109    1.2846    0.0000 O   0  0  0  0  0  0  0  0  0  0  0  0
    0.1827    1.0432    0.0000 C   0  0  0  0  0  0  0  0  0  0  0  0
    0.9948    1.1884    0.0000 C   0  0  0  0  0  0  0  0  0  0  0  0
    0.9660   -0.9941    0.0000 H   0  0  0  0  0  0  0  0  0  0  0  0
    2.1935    1.5150    0.0000 H   0  0  0  0  0  0  0  0  0  0  0  0
    2.0584   -0.0730    0.0000 H   0  0  0  0  0  0  0  0  0  0  0  0
    4.3340   -0.2889    0.0000 C   0  0  0  0  0  0  0  0  0  0  0  0
    5.0168    0.1741    0.0000 C   0  0  0  0  0  0  0  0  0  0  0  0
    4.7875    0.9666    0.0000 C   0  0  0  0  0  0  0  0  0  0  0  0
    5.2939    1.6179    0.0000 C   0  0  0  0  0  0  0  0  0  0  0  0
    6.1111    1.5050    0.0000 C   0  0  0  0  0  0  0  0  0  0  0  0
    6.6175    2.1564    0.0000 C   0  0  0  0  0  0  0  0  0  0  0  0
    7.4347    2.0435    0.0000 C   0  0  0  0  0  0  0  0  0  0  0  0
    7.9411    2.6948    0.0000 O   0  0  0  0  0  0  0  0  0  0  0  0
    7.7456    1.2793    0.0000 O   0  0  0  0  0  0  0  0  0  0  0  0
    4.9830    2.3821    0.0000 C   0  0  0  0  0  0  0  0  0  0  0  0
    5.5977    0.8111    0.0000 H   0  0  0  0  0  0  0  0  0  0  0  0
    3.1508    0.8481    0.0000 H   0  0  0  0  0  0  0  0  0  0  0  0
  2  1  1  1
  2  3  1  0
  3  4  1  0
  4  5  1  0
  5  6  1  0
  7  6  1  0
  2  7  1  0
  7  8  1  6
  5  9  1  0
  9 10  1  1
  9 11  1  0
 11 12  1  0
 12 13  1  0
  4 13  1  0
 11 14  1  0
 15 14  1  0
 15 16  1  6
 16 17  1  0
 17 18  2  0
 17 19  2  0
 17 20  1  0
 15 21  1  0
 21 22  1  0
  9 22  1  0
 11 23  1  1
  5 24  1  6
  4 25  1  1
  3 26  1  0
 26 27  1  0
 28 27  1  0
  2 28  1  0
 28 29  1  0
 29 30  1  0
 30 31  1  0
 31 32  1  0
 32 33  1  0
 32 34  2  0
 29 35  1  6
 28 36  1  6
  3 37  1  6
M  END
>  <ID>  (80) 
T207843

>  <CAS>  (80) 
67030-48-2

>  <Formula>  (80) 
C24H40O7S

>  <MolWt>  (80) 
472.64

>  <rank>  (80) 
80

>  <final_score>  (80) 
0.0000

>  <max_tc>  (80) 
0.3171

>  <best_match>  (80) 
Obeticholic acid (OCA)

>  <best_target>  (80) 
FXR

>  <physchem_compliance>  (80) 
0.0000

>  <toxic_score>  (80) 
0.8000

$$$$

     RDKit          2D

 32 35  0  0  1  0  0  0  0  0999 V2000
   -0.0095   -0.6295    0.0000 H   0  0  0  0  0  0  0  0  0  0  0  0
    0.1827   -1.4318    0.0000 C   0  0  0  0  0  0  0  0  0  0  0  0
   -0.5757   -1.1069    0.0000 H   0  0  0  0  0  0  0  0  0  0  0  0
    0.9948   -1.2866    0.0000 C   0  0  0  0  0  0  0  0  0  0  0  0
    1.5266   -1.9173    0.0000 C   0  0  0  0  0  0  0  0  0  0  0  0
    1.8069   -1.1414    0.0000 C   0  0  0  0  0  0  0  0  0  0  0  0
    2.3387   -1.7721    0.0000 C   0  0  0  0  0  0  0  0  0  0  0  0
    2.6190   -0.9961    0.0000 C   0  0  0  0  0  0  0  0  0  0  0  0
    3.4311   -0.8509    0.0000 C   0  0  0  0  0  0  0  0  0  0  0  0
    3.7114   -0.0750    0.0000 O   0  0  0  0  0  0  0  0  0  0  0  0
    3.9629   -1.4816    0.0000 C   0  0  0  0  0  0  0  0  0  0  0  0
    4.3228   -0.7393    0.0000 C   0  0  0  0  0  0  0  0  0  0  0  0
    4.7875   -1.5084    0.0000 C   0  0  0  0  0  0  0  0  0  0  0  0
    5.0168   -2.3009    0.0000 C   0  0  0  0  0  0  0  0  0  0  0  0
    4.3340   -2.7639    0.0000 C   0  0  0  0  0  0  0  0  0  0  0  0
    3.6826   -2.2576    0.0000 C   0  0  0  0  0  0  0  0  0  0  0  0
    2.8705   -2.4028    0.0000 C   0  0  0  0  0  0  0  0  0  0  0  0
    2.5902   -3.1787    0.0000 C   0  0  0  0  0  0  0  0  0  0  0  0
    1.7781   -3.3239    0.0000 C   0  0  0  0  0  0  0  0  0  0  0  0
    1.2463   -2.6932    0.0000 C   0  0  0  0  0  0  0  0  0  0  0  0
    0.4342   -2.8384    0.0000 C   0  0  0  0  0  0  0  0  0  0  0  0
   -0.1645   -3.4060    0.0000 H   0  0  0  0  0  0  0  0  0  0  0  0
    0.5319   -3.6576    0.0000 H   0  0  0  0  0  0  0  0  0  0  0  0
   -0.0976   -2.2077    0.0000 C   0  0  0  0  0  0  0  0  0  0  0  0
   -0.9098   -2.3529    0.0000 O   0  0  0  0  0  0  0  0  0  0  0  0
    5.2939   -0.8571    0.0000 C   0  0  0  0  0  0  0  0  0  0  0  0
    4.9830   -0.0929    0.0000 C   0  0  0  0  0  0  0  0  0  0  0  0
    6.1111   -0.9700    0.0000 C   0  0  0  0  0  0  0  0  0  0  0  0
    6.6175   -0.3186    0.0000 C   0  0  0  0  0  0  0  0  0  0  0  0
    7.4347   -0.4315    0.0000 C   0  0  0  0  0  0  0  0  0  0  0  0
    7.9411    0.2198    0.0000 O   0  0  0  0  0  0  0  0  0  0  0  0
    7.7456   -1.1957    0.0000 O   0  0  0  0  0  0  0  0  0  0  0  0
  1  2  1  0
  2  3  1  0
  2  4  1  0
  5  4  1  0
  5  6  1  1
  7  5  1  0
  7  8  1  1
  9  8  1  0
  9 10  1  6
 11  9  1  0
 11 12  1  1
 11 13  1  0
 13 14  1  1
 14 15  1  0
 16 15  1  1
 11 16  1  0
 16 17  1  0
 17  7  1  0
 17 18  1  6
 18 19  1  0
 20 19  1  6
  5 20  1  0
 20 21  1  0
 21 22  1  0
 21 23  1  0
 24 21  1  0
 24  2  1  0
 24 25  1  6
 13 26  1  0
 26 27  1  6
 26 28  1  0
 28 29  1  0
 29 30  1  0
 30 31  1  0
 30 32  2  0
M  ISO  4   1   2   3   2  22   2  23   2
M  END
>  <ID>  (81) 
TMIH-0182

>  <CAS>  (81) 
112076-61-6

>  <Formula>  (81) 
C24H36D4O4

>  <MolWt>  (81) 
396.6

>  <rank>  (81) 
81

>  <final_score>  (81) 
0.0000

>  <max_tc>  (81) 
0.4684

>  <best_match>  (81) 
Aramchol

>  <best_target>  (81) 
SCD1

>  <physchem_compliance>  (81) 
0.0000

>  <toxic_score>  (81) 
0.6000

$$$$
